electric-grid/physical/synthetic/texas7k/Texas7k_20210309.m
% Case saved by PowerWorld Simulator, version 22 Beta, build date March 1, 2021
% Case Information Header = 4 lines
% This is a synthetic electric grid designed by researchers at Texas A&M University, created for use in the ARPA-E PERFORM 
% program
% Reference: A. B. Birchfield, T. Xu, K. M. Gegner, K. S. Shetye, and T. J. Overbye, "Grid structural characteristics as validation 
% criteria for synthetic networks," IEEE Transactions on Power Systems, vol. 32, no. 4, pp. 3258-3265, Jul. 2017.
function mpc = Texas7k_20210309
mpc.version = '2';
mpc.baseMVA =  100.00;

%% bus data 
mpc.bus = [
110001	1	0.22	0.08	0.00	0.00	7	1.0370926	-4.242394	138.00	1	1.100	0.900	27.46	0.01	0	0
110002	1	0.00	0.00	0.00	0.00	7	1.0370926	-4.242394	13.80	1	1.100	0.900	27.46	0.01	0	0
110003	1	0.00	0.00	0.00	0.00	7	1.0370926	-4.242394	13.80	1	1.100	0.900	27.46	0.01	0	0
110004	1	0.00	0.00	0.00	0.00	7	1.0370926	-4.242394	1.00	1	1.100	0.900	27.46	0.01	0	0
110005	1	79.70	38.66	0.00	0.00	7	1.0218551	-11.384533	138.00	1	1.100	0.900	27.46	0.01	0	0
110006	1	0.00	0.00	0.00	0.00	7	1.0218551	-11.384533	13.80	1	1.100	0.900	27.46	0.01	0	0
110007	1	0.00	0.00	0.00	0.00	7	1.0218551	-11.384533	13.80	1	1.100	0.900	27.46	0.01	0	0
110008	1	0.00	0.00	0.00	0.00	7	1.0218551	-11.384533	1.00	1	1.100	0.900	27.46	0.01	0	0
110009	1	5.90	2.03	0.00	0.00	7	1.0286010	-3.558826	138.00	1	1.100	0.900	27.51	0.01	0	0
110010	1	0.00	0.00	0.00	0.00	7	1.0286010	-3.558826	13.80	1	1.100	0.900	27.51	0.01	0	0
110011	1	0.00	0.00	0.00	0.00	7	1.0286010	-3.558826	13.80	1	1.100	0.900	27.51	0.01	0	0
110012	1	0.00	0.00	0.00	0.00	7	1.0286010	-3.558826	1.00	1	1.100	0.900	27.51	0.01	0	0
110013	1	15.30	3.54	0.00	0.00	7	1.0115570	-12.681401	138.00	1	1.100	0.900	27.44	0.01	0	0
110014	1	0.00	0.00	0.00	0.00	7	1.0115570	-12.681401	13.80	1	1.100	0.900	27.44	0.01	0	0
110015	1	0.00	0.00	0.00	0.00	7	1.0115570	-12.681401	13.80	1	1.100	0.900	27.44	0.01	0	0
110016	1	0.00	0.00	0.00	0.00	7	1.0115570	-12.681401	1.00	1	1.100	0.900	27.44	0.01	0	0
110017	1	11.00	2.71	0.00	0.00	7	1.0264433	-16.738404	138.00	1	1.100	0.900	27.44	0.01	0	0
110018	1	0.00	0.00	0.00	0.00	7	1.0264433	-16.738404	13.80	1	1.100	0.900	27.44	0.01	0	0
110019	1	0.00	0.00	0.00	0.00	7	1.0264433	-16.738404	13.80	1	1.100	0.900	27.44	0.01	0	0
110020	1	0.00	0.00	0.00	0.00	7	1.0264433	-16.738404	1.00	1	1.100	0.900	27.44	0.01	0	0
110021	1	8.30	1.88	0.00	0.00	7	1.0251749	-6.828781	138.00	1	1.100	0.900	27.46	0.01	0	0
110022	1	0.00	0.00	0.00	0.00	7	1.0251749	-6.828781	22.00	1	1.100	0.900	27.46	0.01	0	0
110023	1	0.00	0.00	0.00	0.00	7	1.0251749	-6.828781	22.00	1	1.100	0.900	27.46	0.01	0	0
110024	1	0.00	0.00	0.00	0.00	7	1.0251749	-6.828781	1.00	1	1.100	0.900	27.46	0.01	0	0
110025	1	7.30	2.11	0.00	0.00	7	1.0260746	-6.831657	138.00	1	1.100	0.900	27.46	0.01	0	0
110026	1	0.00	0.00	0.00	0.00	7	1.0260746	-6.831657	13.80	1	1.100	0.900	27.46	0.01	0	0
110027	1	0.00	0.00	0.00	0.00	7	1.0260746	-6.831657	13.80	1	1.100	0.900	27.46	0.01	0	0
110028	1	0.00	0.00	0.00	0.00	7	1.0260746	-6.831657	1.00	1	1.100	0.900	27.46	0.01	0	0
110029	1	7.70	2.03	0.00	0.00	7	1.0279168	-8.722837	138.00	1	1.100	0.900	27.44	0.00	0	0
110030	1	0.00	0.00	0.00	0.00	7	1.0279168	-8.722837	13.80	1	1.100	0.900	27.44	0.00	0	0
110031	1	0.00	0.00	0.00	0.00	7	1.0279168	-8.722837	13.80	1	1.100	0.900	27.44	0.00	0	0
110032	1	0.00	0.00	0.00	0.00	7	1.0279168	-8.722837	1.00	1	1.100	0.900	27.44	0.00	0	0
110033	1	7.50	1.80	0.00	0.00	7	1.0164845	-10.439684	138.00	1	1.100	0.900	27.62	0.01	0	0
110034	1	0.00	0.00	0.00	0.00	7	1.0164845	-10.439684	13.80	1	1.100	0.900	27.62	0.01	0	0
110035	1	0.00	0.00	0.00	0.00	7	1.0164845	-10.439684	13.80	1	1.100	0.900	27.62	0.01	0	0
110036	1	0.00	0.00	0.00	0.00	7	1.0164845	-10.439684	1.00	1	1.100	0.900	27.62	0.01	0	0
110037	1	4.25	0.68	0.00	0.00	7	1.0324650	-7.927104	138.00	1	1.100	0.900	27.45	0.02	0	0
110038	1	0.00	0.00	0.00	0.00	7	1.0324650	-7.927104	13.80	1	1.100	0.900	27.45	0.02	0	0
110039	1	0.00	0.00	0.00	0.00	7	1.0324650	-7.927104	13.80	1	1.100	0.900	27.45	0.02	0	0
110040	1	0.00	0.00	0.00	0.00	7	1.0324650	-7.927104	1.00	1	1.100	0.900	27.45	0.02	0	0
110041	1	2.56	0.53	0.00	0.00	7	1.0306011	-5.898392	138.00	1	1.100	0.900	27.46	0.01	0	0
110042	1	0.00	0.00	0.00	0.00	7	1.0306011	-5.898392	24.00	1	1.100	0.900	27.46	0.01	0	0
110043	1	0.00	0.00	0.00	0.00	7	1.0306011	-5.898392	24.00	1	1.100	0.900	27.46	0.01	0	0
110044	1	0.00	0.00	0.00	0.00	7	1.0306011	-5.898392	1.00	1	1.100	0.900	27.46	0.01	0	0
110045	1	1.73	0.53	0.00	0.00	7	1.0287298	-8.189099	138.00	1	1.100	0.900	27.45	0.02	0	0
110046	1	0.00	0.00	0.00	0.00	7	1.0287298	-8.189099	13.80	1	1.100	0.900	27.45	0.02	0	0
110047	1	0.00	0.00	0.00	0.00	7	1.0287298	-8.189099	13.80	1	1.100	0.900	27.45	0.02	0	0
110048	1	0.00	0.00	0.00	0.00	7	1.0287298	-8.189099	1.00	1	1.100	0.900	27.45	0.02	0	0
110049	1	3.09	0.30	0.00	0.00	7	1.0246793	-5.885151	138.00	1	1.100	0.900	27.46	0.01	0	0
110050	1	0.00	0.00	0.00	0.00	7	1.0246793	-5.885151	18.00	1	1.100	0.900	27.46	0.01	0	0
110051	1	0.00	0.00	0.00	0.00	7	1.0246793	-5.885151	18.00	1	1.100	0.900	27.46	0.01	0	0
110052	1	0.00	0.00	0.00	0.00	7	1.0246793	-5.885151	1.00	1	1.100	0.900	27.46	0.01	0	0
110053	1	4.25	0.68	0.00	0.00	7	1.0261359	-6.415464	138.00	1	1.100	0.900	27.46	0.01	0	0
110054	1	0.00	0.00	0.00	0.00	7	1.0261359	-6.415464	13.80	1	1.100	0.900	27.46	0.01	0	0
110055	1	0.00	0.00	0.00	0.00	7	1.0261359	-6.415464	13.80	1	1.100	0.900	27.46	0.01	0	0
110056	1	0.00	0.00	0.00	0.00	7	1.0261359	-6.415464	1.00	1	1.100	0.900	27.46	0.01	0	0
110057	1	0.61	0.21	0.00	0.00	7	1.0273869	-7.223056	138.00	1	1.100	0.900	27.46	0.01	0	0
110058	1	0.00	0.00	0.00	0.00	7	1.0273869	-7.223056	24.00	1	1.100	0.900	27.46	0.01	0	0
110059	1	0.00	0.00	0.00	0.00	7	1.0273869	-7.223056	24.00	1	1.100	0.900	27.46	0.01	0	0
110060	1	0.00	0.00	0.00	0.00	7	1.0273869	-7.223056	1.00	1	1.100	0.900	27.46	0.01	0	0
110061	1	1.58	0.38	0.00	0.00	7	1.0277130	-6.530545	138.00	1	1.100	0.900	27.46	0.01	0	0
110062	1	0.00	0.00	0.00	0.00	7	1.0277130	-6.530545	18.00	1	1.100	0.900	27.46	0.01	0	0
110063	1	0.00	0.00	0.00	0.00	7	1.0277130	-6.530545	18.00	1	1.100	0.900	27.46	0.01	0	0
110064	1	0.00	0.00	0.00	0.00	7	1.0277130	-6.530545	1.00	1	1.100	0.900	27.46	0.01	0	0
110065	1	3.24	1.05	0.00	0.00	7	1.0230903	-12.108720	138.00	1	1.100	0.900	27.46	0.01	0	0
110066	1	0.00	0.00	0.00	0.00	7	1.0230903	-12.108720	24.00	1	1.100	0.900	27.46	0.01	0	0
110067	1	0.00	0.00	0.00	0.00	7	1.0230903	-12.108720	24.00	1	1.100	0.900	27.46	0.01	0	0
110068	1	0.00	0.00	0.00	0.00	7	1.0230903	-12.108720	1.00	1	1.100	0.900	27.46	0.01	0	0
110069	1	10.40	2.26	0.00	0.00	7	1.0218060	-9.693303	138.00	1	1.100	0.900	27.48	0.01	0	0
110070	1	0.00	0.00	0.00	0.00	7	1.0218060	-9.693303	13.80	1	1.100	0.900	27.48	0.01	0	0
110071	1	0.00	0.00	0.00	0.00	7	1.0218060	-9.693303	13.80	1	1.100	0.900	27.48	0.01	0	0
110072	1	0.00	0.00	0.00	0.00	7	1.0218060	-9.693303	1.00	1	1.100	0.900	27.48	0.01	0	0
110073	1	5.70	1.13	0.00	0.00	7	1.0255971	-7.171018	138.00	1	1.100	0.900	27.46	0.01	0	0
110074	1	0.00	0.00	0.00	0.00	7	1.0255971	-7.171018	13.80	1	1.100	0.900	27.46	0.01	0	0
110075	1	0.00	0.00	0.00	0.00	7	1.0255971	-7.171018	13.80	1	1.100	0.900	27.46	0.01	0	0
110076	1	0.00	0.00	0.00	0.00	7	1.0255971	-7.171018	1.00	1	1.100	0.900	27.46	0.01	0	0
110077	1	2.41	0.45	0.00	0.00	7	1.0217643	-8.017345	138.00	1	1.100	0.900	27.46	0.01	0	0
110078	1	0.00	0.00	0.00	0.00	7	1.0217643	-8.017345	18.00	1	1.100	0.900	27.46	0.01	0	0
110079	1	0.00	0.00	0.00	0.00	7	1.0217643	-8.017345	18.00	1	1.100	0.900	27.46	0.01	0	0
110080	1	0.00	0.00	0.00	0.00	7	1.0217643	-8.017345	1.00	1	1.100	0.900	27.46	0.01	0	0
110081	1	4.70	0.22	0.00	0.00	7	1.0146134	-4.139481	138.00	1	1.100	0.900	27.48	0.01	0	0
110082	1	0.00	0.00	0.00	0.00	7	1.0146134	-4.139481	24.00	1	1.100	0.900	27.48	0.01	0	0
110083	1	0.00	0.00	0.00	0.00	7	1.0146134	-4.139481	24.00	1	1.100	0.900	27.48	0.01	0	0
110084	1	0.00	0.00	0.00	0.00	7	1.0146134	-4.139481	1.00	1	1.100	0.900	27.48	0.01	0	0
110085	1	4.07	1.05	0.00	0.00	7	1.0283858	-9.319997	138.00	1	1.100	0.900	27.53	0.01	0	0
110086	1	0.00	0.00	0.00	0.00	7	1.0283858	-9.319997	18.00	1	1.100	0.900	27.53	0.01	0	0
110087	1	0.00	0.00	0.00	0.00	7	1.0283858	-9.319997	18.00	1	1.100	0.900	27.53	0.01	0	0
110088	1	0.00	0.00	0.00	0.00	7	1.0283858	-9.319997	1.00	1	1.100	0.900	27.53	0.01	0	0
110089	1	3.89	0.38	0.00	0.00	7	1.0239356	-2.364095	138.00	1	1.100	0.900	27.49	0.01	0	0
110090	1	0.00	0.00	0.00	0.00	7	1.0239356	-2.364095	18.00	1	1.100	0.900	27.49	0.01	0	0
110091	1	0.00	0.00	0.00	0.00	7	1.0239356	-2.364095	18.00	1	1.100	0.900	27.49	0.01	0	0
110092	1	0.00	0.00	0.00	0.00	7	1.0239356	-2.364095	1.00	1	1.100	0.900	27.49	0.01	0	0
110093	1	0.58	0.14	0.00	0.00	7	1.0095350	-3.536299	138.00	1	1.100	0.900	27.48	0.01	0	0
110094	1	0.00	0.00	0.00	0.00	7	0.9650575	-6.973774	13.80	1	1.100	0.900	27.48	0.01	0	0
110095	1	0.00	0.00	0.00	0.00	7	0.9650575	-6.973774	13.80	1	1.100	0.900	27.48	0.01	0	0
110096	1	115.00	75.20	0.00	0.00	7	0.9650575	-6.973774	1.00	1	1.100	0.900	27.48	0.01	0	0
110097	1	1.95	0.45	0.00	0.00	7	1.0181300	-4.531549	138.00	1	1.100	0.900	27.48	0.01	0	0
110098	1	0.00	0.00	0.00	0.00	7	1.0181300	-4.531549	13.80	1	1.100	0.900	27.48	0.01	0	0
110099	1	0.00	0.00	0.00	0.00	7	1.0181300	-4.531549	13.80	1	1.100	0.900	27.48	0.01	0	0
110100	1	0.00	0.00	0.00	0.00	7	1.0181300	-4.531549	1.00	1	1.100	0.900	27.48	0.01	0	0
110101	1	0.99	0.30	0.00	26.60	7	1.0337231	-1.639254	138.00	1	1.100	0.900	27.50	0.01	0	0
110102	1	0.00	0.00	0.00	0.00	7	1.0337231	-1.639254	13.80	1	1.100	0.900	27.50	0.01	0	0
110103	1	0.00	0.00	0.00	0.00	7	1.0337231	-1.639254	13.80	1	1.100	0.900	27.50	0.01	0	0
110104	1	0.00	0.00	0.00	0.00	7	1.0337231	-1.639254	1.00	1	1.100	0.900	27.50	0.01	0	0
110105	1	4.80	0.30	0.00	0.00	7	1.0279726	-3.325632	138.00	1	1.100	0.900	27.51	0.01	0	0
110106	1	0.00	0.00	0.00	0.00	7	1.0279726	-3.325632	18.00	1	1.100	0.900	27.51	0.01	0	0
110107	1	0.00	0.00	0.00	0.00	7	1.0279726	-3.325632	18.00	1	1.100	0.900	27.51	0.01	0	0
110108	1	0.00	0.00	0.00	0.00	7	1.0279726	-3.325632	1.00	1	1.100	0.900	27.51	0.01	0	0
110109	1	0.09	0.01	0.00	36.90	7	1.0356752	-10.632944	138.00	1	1.100	0.900	27.55	0.01	0	0
110110	1	0.00	0.00	0.00	0.00	7	1.0356752	-10.632944	13.80	1	1.100	0.900	27.55	0.01	0	0
110111	1	0.00	0.00	0.00	0.00	7	1.0356752	-10.632944	13.80	1	1.100	0.900	27.55	0.01	0	0
110112	1	0.00	0.00	0.00	0.00	7	1.0356752	-10.632944	1.00	1	1.100	0.900	27.55	0.01	0	0
110113	1	0.66	0.22	0.00	0.00	7	1.0361981	-3.692650	138.00	1	1.100	0.900	27.46	0.01	0	0
110114	1	0.00	0.00	0.00	0.00	7	1.0361981	-3.692650	18.00	1	1.100	0.900	27.46	0.01	0	0
110115	1	0.00	0.00	0.00	0.00	7	1.0361981	-3.692650	18.00	1	1.100	0.900	27.46	0.01	0	0
110116	1	0.00	0.00	0.00	0.00	7	1.0361981	-3.692650	1.00	1	1.100	0.900	27.46	0.01	0	0
110117	1	4.70	0.75	0.00	0.00	7	1.0137923	-4.654491	138.00	1	1.100	0.900	27.49	0.01	0	0
110118	1	0.63	0.22	0.00	0.00	7	1.0281398	-8.976583	138.00	1	1.100	0.900	27.45	0.02	0	0
110119	1	1.95	0.68	0.00	0.00	7	1.0163975	-8.704420	138.00	1	1.100	0.900	27.54	0.01	0	0
110120	1	2.18	0.60	0.00	0.00	7	1.0247547	-5.868602	138.00	1	1.100	0.900	27.48	0.01	0	0
110121	1	0.49	0.16	0.00	0.00	7	1.0221353	-6.308827	138.00	1	1.100	0.900	27.54	0.01	0	0
110122	1	0.92	0.30	0.00	0.00	7	1.0242146	-0.746418	138.00	1	1.100	0.900	27.47	0.01	0	0
110123	1	111.14	79.15	0.00	0.00	7	1.0061513	-13.423177	138.00	1	1.100	0.900	27.44	0.01	0	0
110124	1	0.46	0.09	0.00	0.00	7	1.0378097	-7.943878	138.00	1	1.100	0.900	27.45	0.02	0	0
110125	1	26.80	4.33	0.00	0.00	7	1.0225243	-9.856426	138.00	1	1.100	0.900	27.47	0.01	0	0
110126	1	0.00	0.00	0.00	76.84	7	1.0352994	-2.444048	345.00	1	1.100	0.900	27.46	0.00	0	0
110127	1	222.50	81.80	0.00	0.00	7	1.0269539	-5.369169	138.00	1	1.100	0.900	27.48	0.01	0	0
110128	1	41.40	6.70	0.00	0.00	7	1.0244504	-7.196909	138.00	1	1.100	0.900	27.46	0.01	0	0
110129	1	37.70	8.26	0.00	0.00	7	1.0304784	-19.011627	138.00	1	1.100	0.900	27.44	0.01	0	0
110130	1	10.30	1.13	0.00	0.00	7	1.0227884	-10.747621	138.00	1	1.100	0.900	27.45	0.02	0	0
110131	1	15.50	2.56	0.00	0.00	7	1.0352043	-16.164100	138.00	1	1.100	0.900	27.43	0.01	0	0
110132	1	100.50	9.37	0.00	0.00	7	1.0208398	-11.418891	138.00	1	1.100	0.900	27.44	0.01	0	0
110133	1	6.30	1.95	0.00	0.00	7	1.0242185	-4.916247	138.00	1	1.100	0.900	27.46	0.01	0	0
110134	1	4.60	0.60	0.00	0.00	7	1.0248284	-7.077261	138.00	1	1.100	0.900	27.46	0.01	0	0
110135	1	21.80	6.70	0.00	0.00	7	1.0199411	-7.775494	138.00	1	1.100	0.900	27.51	0.01	0	0
110136	1	9.50	3.09	0.00	0.00	7	1.0246454	-1.200824	138.00	1	1.100	0.900	27.49	0.01	0	0
110137	1	14.20	2.34	0.00	0.00	7	1.0288302	-16.894875	138.00	1	1.100	0.900	27.44	0.01	0	0
110138	1	14.90	5.30	0.00	0.00	7	1.0190875	-7.207088	138.00	1	1.100	0.900	27.50	0.01	0	0
110139	1	0.48	0.08	0.00	0.00	7	1.0355376	-3.234422	138.00	1	1.100	0.900	27.46	0.01	0	0
110140	1	9.40	1.35	0.00	0.00	7	1.0296379	-17.492167	138.00	1	1.100	0.900	27.44	0.01	0	0
110141	1	18.10	4.97	0.00	0.00	7	1.0342354	-17.613456	138.00	1	1.100	0.900	27.43	0.01	0	0
110142	1	21.46	16.50	0.00	0.00	7	1.0235715	-18.774772	138.00	1	1.100	0.900	27.44	0.01	0	0
110143	1	6.30	0.90	0.00	0.00	7	1.0339228	-17.572352	138.00	1	1.100	0.900	27.42	0.01	0	0
110144	1	68.94	33.90	0.00	100.80	7	1.0361035	-18.465273	138.00	1	1.100	0.900	27.44	0.01	0	0
110145	1	1.88	0.38	0.00	0.00	7	1.0183737	-14.335278	138.00	1	1.100	0.900	27.46	0.02	0	0
110146	1	0.96	0.22	0.00	0.00	7	1.0240690	-14.106964	138.00	1	1.100	0.900	27.45	0.02	0	0
110147	1	6.50	0.83	0.00	0.00	7	1.0263652	-19.336737	138.00	1	1.100	0.900	27.44	0.01	0	0
110148	1	2.86	0.22	0.00	0.00	7	1.0273558	-17.322596	138.00	1	1.100	0.900	27.44	0.02	0	0
110149	1	9.80	3.54	0.00	0.00	7	1.0321019	-17.595789	138.00	1	1.100	0.900	27.44	0.01	0	0
110150	1	5.20	1.58	0.00	0.00	7	1.0307262	-18.853149	138.00	1	1.100	0.900	27.47	-0.00	0	0
110151	1	6.40	2.03	0.00	0.00	7	1.0211007	-11.130863	138.00	1	1.100	0.900	27.45	0.02	0	0
110152	1	4.07	0.53	0.00	0.00	7	1.0283193	-17.111376	138.00	1	1.100	0.900	27.44	0.01	0	0
110153	1	5.40	1.95	0.00	0.00	7	1.0265381	-19.650760	138.00	1	1.100	0.900	27.47	0.00	0	0
110154	1	5.70	1.73	0.00	0.00	7	1.0326501	-12.465369	138.00	1	1.100	0.900	27.49	-0.03	0	0
110155	1	4.90	1.73	0.00	36.60	7	1.0307626	-13.454996	138.00	1	1.100	0.900	27.49	-0.03	0	0
110156	1	4.60	0.75	0.00	0.00	7	1.0304511	-16.752469	138.00	1	1.100	0.900	27.43	0.01	0	0
110157	1	6.30	0.68	0.00	0.00	7	1.0237512	-15.875959	138.00	1	1.100	0.900	27.44	0.02	0	0
110158	1	2.86	0.75	0.00	0.00	7	1.0235006	-20.967789	138.00	1	1.100	0.900	27.44	0.01	0	0
110159	1	2.79	0.98	0.00	0.00	7	1.0350268	-16.715546	138.00	1	1.100	0.900	27.43	0.01	0	0
110160	1	0.00	0.00	0.00	45.83	7	1.0386225	-11.576647	345.00	1	1.100	0.900	27.41	0.01	0	0
110161	1	11.14	6.62	0.00	0.00	7	1.0385311	-14.697859	138.00	1	1.100	0.900	27.42	0.01	0	0
110162	1	0.00	0.00	0.00	0.00	7	1.0238628	-24.819294	138.00	1	1.100	0.900	27.59	-0.00	0	0
110163	1	42.10	12.60	0.00	0.00	7	1.0189009	-27.264507	69.00	1	1.100	0.900	27.57	-0.00	0	0
110164	1	30.20	11.50	0.00	0.00	7	1.0095404	-27.873217	69.00	1	1.100	0.900	27.54	-0.00	0	0
110165	1	0.00	0.00	0.00	0.00	7	1.0134259	-24.083319	138.00	1	1.100	0.900	27.53	-0.00	0	0
110166	1	37.90	5.70	0.00	0.00	7	1.0190849	-27.313140	69.00	1	1.100	0.900	27.55	-0.00	0	0
110167	1	25.70	3.24	0.00	0.00	7	1.0162719	-27.996859	69.00	1	1.100	0.900	27.56	-0.00	0	0
110168	1	26.40	5.60	0.00	0.00	7	1.0070288	-28.481245	69.00	1	1.100	0.900	27.58	-0.00	0	0
110169	1	0.00	0.00	0.00	0.00	7	1.0198031	-25.935223	138.00	1	1.100	0.900	27.58	-0.00	0	0
110170	1	40.20	11.00	0.00	0.00	7	1.0255017	-27.964901	69.00	1	1.100	0.900	27.56	-0.00	0	0
110171	1	4.90	1.58	0.00	0.00	7	1.0154656	-27.708950	69.00	1	1.100	0.900	27.55	-0.00	0	0
110172	1	0.00	0.00	0.00	0.00	7	1.0047350	-25.755245	138.00	1	1.100	0.900	27.53	-0.00	0	0
110173	1	54.70	11.60	0.00	0.00	7	1.0073240	-27.824013	69.00	1	1.100	0.900	27.54	-0.00	0	0
110174	1	0.00	0.00	0.00	0.00	7	1.0198586	-25.573047	138.00	1	1.100	0.900	27.59	-0.00	0	0
110175	1	43.10	11.70	0.00	0.00	7	1.0045898	-28.231907	69.00	1	1.100	0.900	27.57	-0.00	0	0
110176	1	0.00	0.00	0.00	0.00	7	1.0095317	-25.039593	138.00	1	1.100	0.900	27.53	-0.00	0	0
110177	1	76.90	18.75	0.00	0.00	7	1.0120652	-27.357591	69.00	1	1.100	0.900	27.55	-0.00	0	0
110178	1	33.30	10.30	0.00	140.20	7	1.0289120	-28.161710	69.00	1	1.100	0.900	27.56	-0.00	0	0
110179	1	23.40	7.10	0.00	0.00	7	1.0118046	-28.080469	69.00	1	1.100	0.900	27.56	-0.00	0	0
110180	1	10.00	2.18	0.00	0.00	7	1.0212320	-25.487166	69.00	1	1.100	0.900	27.49	-0.00	0	0
110181	1	17.20	10.58	0.00	0.00	7	1.0210098	-25.027415	69.00	1	1.100	0.900	27.47	0.00	0	0
110182	1	6.40	1.95	0.00	0.00	7	1.0183715	-25.676378	69.00	1	1.100	0.900	27.48	0.00	0	0
110183	1	9.20	3.31	0.00	0.00	7	1.0236602	-25.460249	69.00	1	1.100	0.900	27.48	0.00	0	0
110184	1	5.30	1.28	0.00	0.00	7	1.0219001	-25.457192	69.00	1	1.100	0.900	27.48	0.00	0	0
110185	1	3.89	1.13	0.00	0.00	7	1.0292835	-24.287306	69.00	1	1.100	0.900	27.47	0.01	0	0
110186	1	5.30	0.83	0.00	0.00	7	1.0283577	-24.628186	69.00	1	1.100	0.900	27.46	0.01	0	0
110187	1	16.90	7.94	0.00	28.60	7	1.0237630	-25.437645	69.00	1	1.100	0.900	27.49	-0.00	0	0
110188	1	0.00	0.00	0.00	0.00	7	1.0260315	-21.478678	138.00	1	1.100	0.900	27.42	0.01	0	0
110189	1	7.90	1.20	0.00	0.00	7	1.0337614	-24.606566	69.00	1	1.100	0.900	27.45	0.01	0	0
110190	1	0.00	0.00	0.00	0.00	7	1.0274858	-22.137851	18.00	1	1.100	0.900	27.42	0.01	0	0
110191	1	0.00	0.00	0.00	0.00	7	1.0274858	-22.137851	1.00	1	1.100	0.900	27.42	0.01	0	0
110192	1	6.40	1.58	0.00	0.00	7	1.0216758	-25.412298	69.00	1	1.100	0.900	27.49	-0.00	0	0
110193	1	5.70	1.43	0.00	0.00	7	1.0198251	-25.046270	69.00	1	1.100	0.900	27.48	0.00	0	0
110194	1	3.61	0.15	0.00	93.30	7	1.0270579	-25.501707	69.00	1	1.100	0.900	27.48	0.00	0	0
110195	1	4.80	1.50	0.00	0.00	7	1.0323061	-25.426055	69.00	1	1.100	0.900	27.48	0.00	0	0
110196	1	2.41	0.53	0.00	0.00	7	1.0253178	-25.435054	69.00	1	1.100	0.900	27.48	0.00	0	0
110197	1	8.00	2.71	0.00	0.00	7	1.0210061	-24.948770	69.00	1	1.100	0.900	27.48	0.00	0	0
110198	1	16.10	8.28	0.00	0.00	7	1.0179648	-25.223755	69.00	1	1.100	0.900	27.48	-0.00	0	0
110199	1	4.80	1.50	0.00	0.00	7	1.0296429	-24.712413	69.00	1	1.100	0.900	27.46	0.01	0	0
110200	1	7.30	2.11	0.00	0.00	7	1.0207218	-25.387166	69.00	1	1.100	0.900	27.48	0.00	0	0
...
];

%% generator data 
mpc.gen = [
111180	643.52	1.54	379.71	-250.07	1.0385	895.20	1	746.00	87.52	0.00	0.00	0.00	0.00	0.00	0.00	0	0	0	0	746.0000	0	0	0	0
111181	630.21	1.54	381.24	-231.35	1.0373	898.80	1	749.00	303.73	0.00	0.00	0.00	0.00	0.00	0.00	0	0	0	0	749.0000	0	0	0	0
111183	46.58	21.81	27.49	-15.80	1.0400	64.80	1	54.00	15.73	0.00	0.00	0.00	0.00	0.00	0.00	0	0	0	0	54.0000	0	0	0	0
111184	23.42	27.49	27.49	-18.36	1.0400	64.80	1	54.00	6.30	0.00	0.00	0.00	0.00	0.00	0.00	0	0	0	0	54.0000	0	0	0	0
111185	46.58	22.62	27.49	-16.92	1.0400	64.80	1	54.00	23.18	0.00	0.00	0.00	0.00	0.00	0.00	0	0	0	0	54.0000	0	0	0	0
111186	43.13	21.28	25.45	-14.50	1.0400	60.00	1	50.00	23.19	0.00	0.00	0.00	0.00	0.00	0.00	0	0	0	0	50.0000	0	0	0	0
111187	55.21	28.68	32.58	-17.09	1.0400	76.80	1	64.00	21.89	0.00	0.00	0.00	0.00	0.00	0.00	0	0	0	0	64.0000	0	0	0	0
111188	43.40	17.20	27.49	-18.67	1.0400	64.80	1	54.00	26.28	0.00	0.00	0.00	0.00	0.00	0.00	0	0	0	0	54.0000	0	0	0	0
111190	60.57	5.90	52.94	-32.25	1.0400	124.80	1	104.00	27.60	0.00	0.00	0.00	0.00	0.00	0.00	0	0	0	0	104.0000	0	0	0	0
111191	81.41	8.33	52.94	-33.75	1.0400	124.80	1	104.00	48.44	0.00	0.00	0.00	0.00	0.00	0.00	0	0	0	0	104.0000	0	0	0	0
111192	49.17	10.12	29.01	-16.93	1.0400	68.40	1	57.00	20.52	0.00	0.00	0.00	0.00	0.00	0.00	0	0	0	0	57.0000	0	0	0	0
111193	32.72	6.75	29.01	-15.98	1.0400	68.40	1	57.00	14.65	0.00	0.00	0.00	0.00	0.00	0.00	0	0	0	0	57.0000	0	0	0	0
111194	49.17	8.94	29.01	-16.85	1.0400	68.40	1	57.00	28.41	0.00	0.00	0.00	0.00	0.00	0.00	0	0	0	0	57.0000	0	0	0	0
111195	49.17	5.73	29.01	-16.91	1.0400	68.40	1	57.00	24.09	0.00	0.00	0.00	0.00	0.00	0.00	0	0	0	0	57.0000	0	0	0	0
111196	49.17	7.51	29.01	-15.26	1.0400	68.40	1	57.00	14.15	0.00	0.00	0.00	0.00	0.00	0.00	0	0	0	0	57.0000	0	0	0	0
111197	49.17	5.05	29.01	-18.09	1.0400	68.40	1	57.00	13.05	0.00	0.00	0.00	0.00	0.00	0.00	0	0	0	0	57.0000	0	0	0	0
111198	49.17	5.02	29.01	-17.45	1.0400	68.40	1	57.00	13.03	0.00	0.00	0.00	0.00	0.00	0.00	0	0	0	0	57.0000	0	0	0	0
111199	43.14	4.83	29.01	-18.57	1.0400	68.40	1	57.00	25.07	0.00	0.00	0.00	0.00	0.00	0.00	0	0	0	0	57.0000	0	0	0	0
111200	44.26	7.35	29.52	-15.64	1.0400	69.60	1	58.00	25.87	0.00	0.00	0.00	0.00	0.00	0.00	0	0	0	0	58.0000	0	0	0	0
111201	50.03	4.64	29.52	-14.74	1.0400	69.60	1	58.00	25.90	0.00	0.00	0.00	0.00	0.00	0.00	0	0	0	0	58.0000	0	0	0	0
111202	50.03	5.57	29.52	-16.54	1.0400	69.60	1	58.00	10.82	0.00	0.00	0.00	0.00	0.00	0.00	0	0	0	0	58.0000	0	0	0	0
111203	50.03	8.90	29.52	-15.65	1.0400	69.60	1	58.00	8.97	0.00	0.00	0.00	0.00	0.00	0.00	0	0	0	0	58.0000	0	0	0	0
111204	36.08	7.07	29.52	-16.45	1.0400	69.60	1	58.00	17.69	0.00	0.00	0.00	0.00	0.00	0.00	0	0	0	0	58.0000	0	0	0	0
111205	45.14	7.16	29.52	-19.79	1.0400	69.60	1	58.00	26.75	0.00	0.00	0.00	0.00	0.00	0.00	0	0	0	0	58.0000	0	0	0	0
111206	0.00	0.00	6.62	-3.80	1.0400	15.60	0	13.00	3.03	0.00	0.00	0.00	0.00	0.00	0.00	0	0	0	0	13.0000	0	0	0	0
111208	572.78	3.33	309.42	-167.63	1.0385	796.80	1	664.00	149.20	0.00	0.00	0.00	0.00	0.00	0.00	0	0	0	0	664.0000	0	0	0	0
111209	571.92	3.33	308.96	-223.78	1.0385	795.60	1	663.00	76.51	0.00	0.00	0.00	0.00	0.00	0.00	0	0	0	0	663.0000	0	0	0	0
111210	0.00	0.00	284.26	-206.12	1.0400	732.00	0	610.00	224.35	0.00	0.00	0.00	0.00	0.00	0.00	0	0	0	0	610.0000	0	0	0	0
111211	0.00	0.00	268.88	-194.27	1.0400	692.40	0	577.00	183.07	0.00	0.00	0.00	0.00	0.00	0.00	0	0	0	0	577.0000	0	0	0	0
111212	0.00	0.00	6.62	-3.76	1.0400	15.60	0	13.00	1.49	0.00	0.00	0.00	0.00	0.00	0.00	0	0	0	0	13.0000	0	0	0	0
111212	476.17	3.33	280.97	-182.79	1.0380	662.40	1	552.00	165.98	0.00	0.00	0.00	0.00	0.00	0.00	0	0	0	0	552.0000	0	0	0	0
111213	235.50	3.33	138.96	-70.38	1.0403	327.60	1	273.00	34.50	0.00	0.00	0.00	0.00	0.00	0.00	0	0	0	0	273.0000	0	0	0	0
111214	145.78	0.45	86.02	-58.46	1.0400	202.80	1	169.00	44.20	0.00	0.00	0.00	0.00	0.00	0.00	0	0	0	0	169.0000	0	0	0	0
111215	145.78	3.33	86.02	-49.07	1.0408	202.80	1	169.00	29.81	0.00	0.00	0.00	0.00	0.00	0.00	0	0	0	0	169.0000	0	0	0	0
111217	1104.16	65.30	471.04	-365.47	1.0420	1536.00	1	1280.00	201.18	0.00	0.00	0.00	0.00	0.00	0.00	0	0	0	0	1280.0000	0	0	0	0
111218	1104.16	65.30	471.04	-382.86	1.0413	1536.00	1	1280.00	178.29	0.00	0.00	0.00	0.00	0.00	0.00	0	0	0	0	1280.0000	0	0	0	0
111220	60.57	13.10	41.23	-21.32	1.0400	97.20	1	81.00	34.89	0.00	0.00	0.00	0.00	0.00	0.00	0	0	0	0	81.0000	0	0	0	0
111221	69.87	14.04	41.23	-21.95	1.0400	97.20	1	81.00	13.80	0.00	0.00	0.00	0.00	0.00	0.00	0	0	0	0	81.0000	0	0	0	0
111223	0.00	0.00	15.27	-10.32	1.0400	36.00	0	30.00	3.97	0.00	0.00	0.00	0.00	0.00	0.00	0	0	0	0	30.0000	0	0	0	0
111231	64.70	20.26	38.17	-25.11	1.0400	90.00	1	75.00	20.03	0.00	0.00	0.00	0.00	0.00	0.00	0	0	0	0	75.0000	0	0	0	0
111232	31.27	19.91	38.17	-25.04	1.0400	90.00	1	75.00	7.50	0.00	0.00	0.00	0.00	0.00	0.00	0	0	0	0	75.0000	0	0	0	0
111233	64.70	13.21	38.17	-22.40	1.0400	90.00	1	75.00	27.46	0.00	0.00	0.00	0.00	0.00	0.00	0	0	0	0	75.0000	0	0	0	0
111234	43.08	18.53	38.17	-20.50	1.0400	90.00	1	75.00	19.31	0.00	0.00	0.00	0.00	0.00	0.00	0	0	0	0	75.0000	0	0	0	0
111237	30.86	19.30	21.63	-10.78	1.0400	51.00	1	42.50	17.39	0.00	0.00	0.00	0.00	0.00	0.00	0	0	0	0	42.5000	0	0	0	0
111241	0.00	0.00	14.25	-8.08	1.0400	33.60	0	28.00	13.43	0.00	0.00	0.00	0.00	0.00	0.00	0	0	0	0	28.0000	0	0	0	0
111242	0.00	0.00	14.25	-9.25	1.0400	33.60	0	28.00	12.12	0.00	0.00	0.00	0.00	0.00	0.00	0	0	0	0	28.0000	0	0	0	0
111242	0.00	0.00	9.16	-5.82	1.0400	21.60	0	18.00	5.59	0.00	0.00	0.00	0.00	0.00	0.00	0	0	0	0	18.0000	0	0	0	0
111243	0.00	0.00	9.16	-5.59	1.0400	21.60	0	18.00	5.77	0.00	0.00	0.00	0.00	0.00	0.00	0	0	0	0	18.0000	0	0	0	0
111243	0.00	0.00	9.16	-6.07	1.0400	21.60	0	18.00	1.93	0.00	0.00	0.00	0.00	0.00	0.00	0	0	0	0	18.0000	0	0	0	0
111244	0.00	0.00	9.16	-6.13	1.0400	21.60	0	18.00	2.10	0.00	0.00	0.00	0.00	0.00	0.00	0	0	0	0	18.0000	0	0	0	0
111246	112.76	71.15	71.26	-39.11	1.0400	168.00	1	140.00	68.38	0.00	0.00	0.00	0.00	0.00	0.00	0	0	0	0	140.0000	0	0	0	0
111247	77.64	43.00	45.81	-22.96	1.0400	108.00	1	90.00	36.59	0.00	0.00	0.00	0.00	0.00	0.00	0	0	0	0	90.0000	0	0	0	0
111248	0.00	0.00	16.29	-9.57	1.0400	38.40	0	32.00	14.60	0.00	0.00	0.00	0.00	0.00	0.00	0	0	0	0	32.0000	0	0	0	0
111249	0.00	0.00	16.29	-10.33	1.0400	38.40	0	32.00	14.84	0.00	0.00	0.00	0.00	0.00	0.00	0	0	0	0	32.0000	0	0	0	0
111249	0.00	0.00	16.29	-9.32	1.0400	38.40	0	32.00	11.82	0.00	0.00	0.00	0.00	0.00	0.00	0	0	0	0	32.0000	0	0	0	0
111251	56.93	14.96	33.59	-22.39	1.0400	79.20	1	66.00	12.15	0.00	0.00	0.00	0.00	0.00	0.00	0	0	0	0	66.0000	0	0	0	0
111252	41.15	15.36	33.59	-20.06	1.0400	79.20	1	66.00	20.23	0.00	0.00	0.00	0.00	0.00	0.00	0	0	0	0	66.0000	0	0	0	0
111253	38.91	14.88	31.56	-19.86	1.0400	74.40	1	62.00	19.26	0.00	0.00	0.00	0.00	0.00	0.00	0	0	0	0	62.0000	0	0	0	0
111254	59.52	13.18	35.12	-18.26	1.0400	82.80	1	69.00	10.92	0.00	0.00	0.00	0.00	0.00	0.00	0	0	0	0	69.0000	0	0	0	0
111260	47.80	35.12	35.12	-22.98	1.0400	82.80	1	69.00	25.93	0.00	0.00	0.00	0.00	0.00	0.00	0	0	0	0	69.0000	0	0	0	0
111262	0.00	0.00	13.04	-12.05	1.0400	45.60	0	38.00	14.26	0.00	0.00	0.00	0.00	0.00	0.00	0	0	0	0	38.0000	0	0	0	0
111264	0.00	0.00	17.81	-9.49	1.0400	42.00	0	35.00	9.49	0.00	0.00	0.00	0.00	0.00	0.00	0	0	0	0	35.0000	0	0	0	0
111266	20.67	10.40	16.83	-15.71	1.0400	54.00	1	45.00	6.40	0.00	0.00	0.00	0.00	0.00	0.00	0	0	0	0	45.0000	0	0	0	0
111266	25.37	10.40	14.24	-13.58	1.0400	54.00	1	45.00	11.11	0.00	0.00	0.00	0.00	0.00	0.00	0	0	0	0	45.0000	0	0	0	0
111267	64.70	32.49	38.17	-20.63	1.0400	90.00	1	75.00	24.70	0.00	0.00	0.00	0.00	0.00	0.00	0	0	0	0	75.0000	0	0	0	0
111268	60.38	23.38	35.63	-18.38	1.0400	84.00	1	70.00	34.86	0.00	0.00	0.00	0.00	0.00	0.00	0	0	0	0	70.0000	0	0	0	0
111270	96.97	55.14	61.13	-37.48	1.0565	144.12	1	120.10	58.90	0.00	0.00	0.00	0.00	0.00	0.00	0	0	0	0	120.1000	0	0	0	0
111271	52.29	9.85	35.12	-17.45	1.0400	82.80	1	69.00	30.42	0.00	0.00	0.00	0.00	0.00	0.00	0	0	0	0	69.0000	0	0	0	0
111272	60.21	7.44	35.53	-23.45	1.0400	83.76	1	69.80	32.31	0.00	0.00	0.00	0.00	0.00	0.00	0	0	0	0	69.8000	0	0	0	0
111273	33.42	25.35	35.53	-24.08	1.0400	83.76	1	69.80	11.29	0.00	0.00	0.00	0.00	0.00	0.00	0	0	0	0	69.8000	0	0	0	0
111274	42.19	4.94	35.68	-18.43	1.0400	84.12	1	70.10	19.97	0.00	0.00	0.00	0.00	0.00	0.00	0	0	0	0	70.1000	0	0	0	0
111275	60.38	14.82	35.63	-20.08	1.0400	84.00	1	70.00	8.34	0.00	0.00	0.00	0.00	0.00	0.00	0	0	0	0	70.0000	0	0	0	0
111276	59.00	6.72	34.82	-17.90	1.0400	82.08	1	68.40	21.65	0.00	0.00	0.00	0.00	0.00	0.00	0	0	0	0	68.4000	0	0	0	0
111280	86.32	7.44	70.75	-35.41	1.0400	166.80	1	139.00	42.26	0.00	0.00	0.00	0.00	0.00	0.00	0	0	0	0	139.0000	0	0	0	0
111281	89.71	7.12	52.94	-26.52	1.0400	124.80	1	104.00	37.35	0.00	0.00	0.00	0.00	0.00	0.00	0	0	0	0	104.0000	0	0	0	0
111282	89.71	7.08	52.94	-29.59	1.0400	124.80	1	104.00	32.22	0.00	0.00	0.00	0.00	0.00	0.00	0	0	0	0	104.0000	0	0	0	0
111283	89.71	6.00	52.94	-28.22	1.0400	124.80	1	104.00	13.48	0.00	0.00	0.00	0.00	0.00	0.00	0	0	0	0	104.0000	0	0	0	0
111286	53.44	8.86	48.66	-32.33	1.0400	114.72	1	95.60	23.14	0.00	0.00	0.00	0.00	0.00	0.00	0	0	0	0	95.6000	0	0	0	0
111287	63.17	5.02	48.66	-24.43	1.0400	114.72	1	95.60	32.87	0.00	0.00	0.00	0.00	0.00	0.00	0	0	0	0	95.6000	0	0	0	0
111288	82.12	4.49	48.46	-26.93	1.0400	114.24	1	95.20	46.30	0.00	0.00	0.00	0.00	0.00	0.00	0	0	0	0	95.2000	0	0	0	0
111289	48.08	4.69	34.76	-19.32	1.0400	81.96	1	68.30	26.43	0.00	0.00	0.00	0.00	0.00	0.00	0	0	0	0	68.3000	0	0	0	0
111290	55.01	4.18	34.76	-18.60	1.0400	81.96	1	68.30	33.36	0.00	0.00	0.00	0.00	0.00	0.00	0	0	0	0	68.3000	0	0	0	0
111291	0.00	0.00	17.81	-10.98	1.0400	42.00	0	35.00	15.74	0.00	0.00	0.00	0.00	0.00	0.00	0	0	0	0	35.0000	0	0	0	0
111292	51.07	7.14	30.13	-19.35	1.0400	71.04	1	59.20	24.70	0.00	0.00	0.00	0.00	0.00	0.00	0	0	0	0	59.2000	0	0	0	0
111295	59.52	18.58	35.12	-18.16	1.0400	82.80	1	69.00	16.48	0.00	0.00	0.00	0.00	0.00	0.00	0	0	0	0	69.0000	0	0	0	0
111296	59.52	7.52	35.12	-21.25	1.0400	82.80	1	69.00	22.97	0.00	0.00	0.00	0.00	0.00	0.00	0	0	0	0	69.0000	0	0	0	0
111297	0.00	0.00	17.31	-9.12	1.0400	40.80	0	34.00	5.19	0.00	0.00	0.00	0.00	0.00	0.00	0	0	0	0	34.0000	0	0	0	0
111301	79.64	9.41	81.44	-54.23	1.0400	192.00	1	160.00	28.92	0.00	0.00	0.00	0.00	0.00	0.00	0	0	0	0	160.0000	0	0	0	0
111302	62.97	6.35	37.16	-21.88	1.0400	87.60	1	73.00	30.33	0.00	0.00	0.00	0.00	0.00	0.00	0	0	0	0	73.0000	0	0	0	0
111303	43.91	7.00	37.16	-24.81	1.0400	87.60	1	73.00	20.77	0.00	0.00	0.00	0.00	0.00	0.00	0	0	0	0	73.0000	0	0	0	0
111304	62.97	5.67	37.16	-21.09	1.0400	87.60	1	73.00	24.52	0.00	0.00	0.00	0.00	0.00	0.00	0	0	0	0	73.0000	0	0	0	0
111306	60.88	0.99	55.48	-36.09	1.0400	130.80	1	109.00	26.33	0.00	0.00	0.00	0.00	0.00	0.00	0	0	0	0	109.0000	0	0	0	0
111307	94.03	55.48	55.48	-30.52	1.0569	130.80	1	109.00	27.46	0.00	0.00	0.00	0.00	0.00	0.00	0	0	0	0	109.0000	0	0	0	0
111308	81.45	1.46	55.48	-34.66	1.0400	130.80	1	109.00	46.90	0.00	0.00	0.00	0.00	0.00	0.00	0	0	0	0	109.0000	0	0	0	0
111309	94.03	1.39	55.48	-37.92	1.0400	130.80	1	109.00	47.78	0.00	0.00	0.00	0.00	0.00	0.00	0	0	0	0	109.0000	0	0	0	0
111312	69.13	19.89	83.99	-47.10	1.0400	198.00	1	165.00	16.83	0.00	0.00	0.00	0.00	0.00	0.00	0	0	0	0	165.0000	0	0	0	0
111313	142.33	-6.92	83.99	-51.29	1.0352	198.00	1	165.00	49.54	0.00	0.00	0.00	0.00	0.00	0.00	0	0	0	0	165.0000	0	0	0	0
111314	142.33	-6.92	83.99	-53.86	1.0338	198.00	1	165.00	71.73	0.00	0.00	0.00	0.00	0.00	0.00	0	0	0	0	165.0000	0	0	0	0
111315	142.33	-6.92	83.99	-47.67	1.0360	198.00	1	165.00	58.52	0.00	0.00	0.00	0.00	0.00	0.00	0	0	0	0	165.0000	0	0	0	0
111316	51.76	7.14	30.54	-16.52	1.0400	72.00	1	60.00	8.55	0.00	0.00	0.00	0.00	0.00	0.00	0	0	0	0	60.0000	0	0	0	0
111318	89.29	9.48	82.46	-48.35	1.0400	194.40	1	162.00	37.94	0.00	0.00	0.00	0.00	0.00	0.00	0	0	0	0	162.0000	0	0	0	0
111319	139.75	-31.65	82.46	-46.29	1.0282	194.40	1	162.00	69.97	0.00	0.00	0.00	0.00	0.00	0.00	0	0	0	0	162.0000	0	0	0	0
111320	140.61	12.26	82.97	-54.72	1.0400	195.60	1	163.00	59.93	0.00	0.00	0.00	0.00	0.00	0.00	0	0	0	0	163.0000	0	0	0	0
111321	93.38	14.25	81.95	-42.94	1.0400	193.20	1	161.00	42.35	0.00	0.00	0.00	0.00	0.00	0.00	0	0	0	0	161.0000	0	0	0	0
111322	117.32	8.44	69.22	-34.05	1.0400	163.20	1	136.00	63.29	0.00	0.00	0.00	0.00	0.00	0.00	0	0	0	0	136.0000	0	0	0	0
111324	150.56	109.43	109.43	-65.43	1.0598	258.00	1	215.00	82.41	0.00	0.00	0.00	0.00	0.00	0.00	0	0	0	0	215.0000	0	0	0	0
111325	159.59	6.73	94.16	-54.86	1.0400	222.00	1	185.00	90.78	0.00	0.00	0.00	0.00	0.00	0.00	0	0	0	0	185.0000	0	0	0	0
111326	159.59	5.88	94.16	-53.28	1.0400	222.00	1	185.00	44.07	0.00	0.00	0.00	0.00	0.00	0.00	0	0	0	0	185.0000	0	0	0	0
111327	157.86	5.59	93.15	-46.34	1.0400	219.60	1	183.00	66.98	0.00	0.00	0.00	0.00	0.00	0.00	0	0	0	0	183.0000	0	0	0	0
111329	0.00	0.00	5.48	-4.02	1.0400	14.04	0	11.70	5.26	0.00	0.00	0.00	0.00	0.00	0.00	0	0	0	0	11.7000	0	0	0	0
111330	64.70	21.75	38.17	-21.38	1.0400	90.00	1	75.00	9.54	0.00	0.00	0.00	0.00	0.00	0.00	0	0	0	0	75.0000	0	0	0	0
111333	110.38	-0.43	139.97	-95.08	1.0400	330.00	1	275.00	110.38	0.00	0.00	0.00	0.00	0.00	0.00	0	0	0	0	275.0000	0	0	0	0
111334	150.96	0.26	89.07	-45.43	1.0400	210.00	1	175.00	74.33	0.00	0.00	0.00	0.00	0.00	0.00	0	0	0	0	175.0000	0	0	0	0
111335	0.00	0.00	89.07	-56.30	1.0400	210.00	0	175.00	77.27	0.00	0.00	0.00	0.00	0.00	0.00	0	0	0	0	175.0000	0	0	0	0
111336	121.52	0.46	89.07	-50.60	1.0400	210.00	1	175.00	38.81	0.00	0.00	0.00	0.00	0.00	0.00	0	0	0	0	175.0000	0	0	0	0
111339	166.49	57.01	98.24	-62.61	1.0521	231.60	1	193.00	95.32	0.00	0.00	0.00	0.00	0.00	0.00	0	0	0	0	193.0000	0	0	0	0
111340	123.45	3.44	84.49	-50.27	1.0400	199.20	1	166.00	37.65	0.00	0.00	0.00	0.00	0.00	0.00	0	0	0	0	166.0000	0	0	0	0
111341	143.20	57.01	84.49	-54.88	1.0530	199.20	1	166.00	44.21	0.00	0.00	0.00	0.00	0.00	0.00	0	0	0	0	166.0000	0	0	0	0
111343	32.78	9.43	19.34	-11.83	1.0400	45.60	1	38.00	10.31	0.00	0.00	0.00	0.00	0.00	0.00	0	0	0	0	38.0000	0	0	0	0
111344	32.78	6.17	19.34	-10.22	1.0400	45.60	1	38.00	18.13	0.00	0.00	0.00	0.00	0.00	0.00	0	0	0	0	38.0000	0	0	0	0
111344	17.12	6.17	19.34	-10.69	1.0400	45.60	1	38.00	5.07	0.00	0.00	0.00	0.00	0.00	0.00	0	0	0	0	38.0000	0	0	0	0
111345	32.78	19.34	19.34	-10.52	1.0400	45.60	1	38.00	6.14	0.00	0.00	0.00	0.00	0.00	0.00	0	0	0	0	38.0000	0	0	0	0
111347	126.90	48.64	143.54	-92.95	1.0522	338.40	1	282.00	37.51	0.00	0.00	0.00	0.00	0.00	0.00	0	0	0	0	282.0000	0	0	0	0
111348	77.92	7.12	86.43	-52.35	1.0400	203.76	1	169.80	24.10	0.00	0.00	0.00	0.00	0.00	0.00	0	0	0	0	169.8000	0	0	0	0
111349	74.45	10.24	86.43	-49.18	1.0400	203.76	1	169.80	20.63	0.00	0.00	0.00	0.00	0.00	0.00	0	0	0	0	169.8000	0	0	0	0
111350	89.28	8.69	86.43	-44.44	1.0400	203.76	1	169.80	35.46	0.00	0.00	0.00	0.00	0.00	0.00	0	0	0	0	169.8000	0	0	0	0
111351	146.47	12.87	86.43	-47.08	1.0400	203.76	1	169.80	32.88	0.00	0.00	0.00	0.00	0.00	0.00	0	0	0	0	169.8000	0	0	0	0
111352	115.44	48.64	78.79	-53.15	1.0573	185.76	1	154.80	66.37	0.00	0.00	0.00	0.00	0.00	0.00	0	0	0	0	154.8000	0	0	0	0
111354	64.70	11.00	38.17	-20.54	1.0400	90.00	1	75.00	9.55	0.00	0.00	0.00	0.00	0.00	0.00	0	0	0	0	75.0000	0	0	0	0
111355	89.14	7.81	80.42	-43.08	1.0400	189.60	1	158.00	39.06	0.00	0.00	0.00	0.00	0.00	0.00	0	0	0	0	158.0000	0	0	0	0
111356	94.31	80.42	80.42	-51.16	1.0595	189.60	1	158.00	44.23	0.00	0.00	0.00	0.00	0.00	0.00	0	0	0	0	158.0000	0	0	0	0
111357	71.40	13.06	80.42	-45.23	1.0400	189.60	1	158.00	21.32	0.00	0.00	0.00	0.00	0.00	0.00	0	0	0	0	158.0000	0	0	0	0
111358	56.63	8.17	38.17	-19.95	1.0400	90.00	1	75.00	32.86	0.00	0.00	0.00	0.00	0.00	0.00	0	0	0	0	75.0000	0	0	0	0
111360	90.05	61.08	86.22	-56.22	1.0629	203.28	1	169.40	36.35	0.00	0.00	0.00	0.00	0.00	0.00	0	0	0	0	169.4000	0	0	0	0
111361	43.13	9.96	25.45	-16.43	1.0400	60.00	1	50.00	22.87	0.00	0.00	0.00	0.00	0.00	0.00	0	0	0	0	50.0000	0	0	0	0
111364	84.54	-0.12	49.88	-32.77	1.0400	117.60	1	98.00	44.23	0.00	0.00	0.00	0.00	0.00	0.00	0	0	0	0	98.0000	0	0	0	0
111365	84.54	-0.05	49.88	-24.97	1.0400	117.60	1	98.00	33.19	0.00	0.00	0.00	0.00	0.00	0.00	0	0	0	0	98.0000	0	0	0	0
111366	62.11	-0.03	36.65	-24.55	1.0400	86.40	1	72.00	8.33	0.00	0.00	0.00	0.00	0.00	0.00	0	0	0	0	72.0000	0	0	0	0
111367	62.11	-0.07	36.65	-22.87	1.0400	86.40	1	72.00	25.74	0.00	0.00	0.00	0.00	0.00	0.00	0	0	0	0	72.0000	0	0	0	0
111368	62.11	-0.03	36.65	-18.19	1.0400	86.40	1	72.00	13.50	0.00	0.00	0.00	0.00	0.00	0.00	0	0	0	0	72.0000	0	0	0	0
111369	32.95	-0.09	36.65	-20.12	1.0400	86.40	1	72.00	10.13	0.00	0.00	0.00	0.00	0.00	0.00	0	0	0	0	72.0000	0	0	0	0
111372	148.37	85.65	87.55	-59.49	1.0577	206.40	1	172.00	74.41	0.00	0.00	0.00	0.00	0.00	0.00	0	0	0	0	172.0000	0	0	0	0
111373	142.33	-0.24	83.99	-46.18	1.0400	198.00	1	165.00	22.41	0.00	0.00	0.00	0.00	0.00	0.00	0	0	0	0	165.0000	0	0	0	0
111374	119.10	-0.89	83.99	-56.58	1.0400	198.00	1	165.00	66.80	0.00	0.00	0.00	0.00	0.00	0.00	0	0	0	0	165.0000	0	0	0	0
111376	0.00	0.00	6.26	-4.30	1.0400	14.76	0	12.30	2.28	0.00	0.00	0.00	0.00	0.00	0.00	0	0	0	0	12.3000	0	0	0	0
111378	41.41	24.43	24.43	-15.32	1.0400	57.60	1	48.00	6.91	0.00	0.00	0.00	0.00	0.00	0.00	0	0	0	0	48.0000	0	0	0	0
111382	63.83	37.67	37.67	-25.10	1.0400	88.80	1	74.00	12.81	0.00	0.00	0.00	0.00	0.00	0.00	0	0	0	0	74.0000	0	0	0	0
111384	0.00	0.00	6.81	-4.78	1.0400	16.80	0	14.00	4.91	0.00	0.00	0.00	0.00	0.00	0.00	0	0	0	0	14.0000	0	0	0	0
111386	54.82	35.63	35.63	-18.52	1.0400	84.00	1	70.00	32.63	0.00	0.00	0.00	0.00	0.00	0.00	0	0	0	0	70.0000	0	0	0	0
111390	407.59	14.18	240.50	-150.94	1.0408	567.00	1	472.50	220.95	0.00	0.00	0.00	0.00	0.00	0.00	0	0	0	0	472.5000	0	0	0	0
111391	156.62	14.18	168.94	-87.16	1.0440	398.28	1	331.90	51.41	0.00	0.00	0.00	0.00	0.00	0.00	0	0	0	0	331.9000	0	0	0	0
111392	289.24	14.18	170.67	-111.17	1.0421	402.36	1	335.30	156.21	0.00	0.00	0.00	0.00	0.00	0.00	0	0	0	0	335.3000	0	0	0	0
111395	24.40	4.25	27.49	-14.83	1.0400	64.80	1	54.00	7.28	0.00	0.00	0.00	0.00	0.00	0.00	0	0	0	0	54.0000	0	0	0	0
111396	46.58	6.88	27.49	-17.42	1.0400	64.80	1	54.00	10.18	0.00	0.00	0.00	0.00	0.00	0.00	0	0	0	0	54.0000	0	0	0	0
111397	46.58	6.60	27.49	-13.90	1.0400	64.80	1	54.00	19.57	0.00	0.00	0.00	0.00	0.00	0.00	0	0	0	0	54.0000	0	0	0	0
111398	46.58	3.90	27.49	-16.97	1.0400	64.80	1	54.00	24.34	0.00	0.00	0.00	0.00	0.00	0.00	0	0	0	0	54.0000	0	0	0	0
111399	32.11	8.86	27.49	-14.33	1.0400	64.80	1	54.00	14.99	0.00	0.00	0.00	0.00	0.00	0.00	0	0	0	0	54.0000	0	0	0	0
111400	46.58	8.37	27.49	-15.98	1.0400	64.80	1	54.00	18.36	0.00	0.00	0.00	0.00	0.00	0.00	0	0	0	0	54.0000	0	0	0	0
111402	38.82	22.90	22.90	-14.15	1.0400	54.00	1	45.00	13.77	0.00	0.00	0.00	0.00	0.00	0.00	0	0	0	0	45.0000	0	0	0	0
111402	38.82	22.90	22.90	-13.82	1.0400	54.00	1	45.00	10.04	0.00	0.00	0.00	0.00	0.00	0.00	0	0	0	0	45.0000	0	0	0	0
111404	100.93	49.09	59.55	-31.47	1.0395	140.40	1	117.00	41.90	0.00	0.00	0.00	0.00	0.00	0.00	0	0	0	0	117.0000	0	0	0	0
111408	0.00	0.00	3.25	-2.79	1.0400	12.00	0	10.00	1.83	0.00	0.00	0.00	0.00	0.00	0.00	0	0	0	0	10.0000	0	0	0	0
111410	0.00	0.00	4.49	-2.98	1.0400	12.00	0	10.00	3.80	0.00	0.00	0.00	0.00	0.00	0.00	0	0	0	0	10.0000	0	0	0	0
111412	0.00	0.00	3.76	-2.90	1.0400	12.00	0	10.00	2.08	0.00	0.00	0.00	0.00	0.00	0.00	0	0	0	0	10.0000	0	0	0	0
120434	19.18	9.19	23.41	-12.55	1.0400	55.20	1	46.00	4.60	0.00	0.00	0.00	0.00	0.00	0.00	0	0	0	0	46.0000	0	0	0	0
120434	21.92	9.19	23.41	-14.08	1.0400	55.20	1	46.00	7.34	0.00	0.00	0.00	0.00	0.00	0.00	0	0	0	0	46.0000	0	0	0	0
120435	0.00	0.00	23.41	-12.34	1.0400	55.20	0	46.00	9.75	0.00	0.00	0.00	0.00	0.00	0.00	0	0	0	0	46.0000	0	0	0	0
120436	39.68	21.69	23.41	-12.46	1.0400	55.20	1	46.00	7.55	0.00	0.00	0.00	0.00	0.00	0.00	0	0	0	0	46.0000	0	0	0	0
120438	317.64	22.21	213.78	-117.09	1.0439	504.00	1	420.00	184.51	0.00	0.00	0.00	0.00	0.00	0.00	0	0	0	0	420.0000	0	0	0	0
120439	353.68	22.21	208.69	-111.76	1.0431	492.00	1	410.00	112.96	0.00	0.00	0.00	0.00	0.00	0.00	0	0	0	0	410.0000	0	0	0	0
120442	27.36	-0.35	24.43	-12.72	1.0400	57.60	1	48.00	12.14	0.00	0.00	0.00	0.00	0.00	0.00	0	0	0	0	48.0000	0	0	0	0
120442	29.11	-0.35	24.43	-13.25	1.0400	57.60	1	48.00	13.89	0.00	0.00	0.00	0.00	0.00	0.00	0	0	0	0	48.0000	0	0	0	0
120443	41.41	-0.16	24.43	-13.12	1.0400	57.60	1	48.00	17.18	0.00	0.00	0.00	0.00	0.00	0.00	0	0	0	0	48.0000	0	0	0	0
120443	40.54	-0.16	23.92	-14.97	1.0400	56.40	1	47.00	17.96	0.00	0.00	0.00	0.00	0.00	0.00	0	0	0	0	47.0000	0	0	0	0
120444	258.86	-30.92	209.71	-105.73	1.0320	494.40	1	412.00	57.33	0.00	0.00	0.00	0.00	0.00	0.00	0	0	0	0	412.0000	0	0	0	0
120445	156.57	-0.28	117.07	-74.42	1.0400	276.00	1	230.00	83.66	0.00	0.00	0.00	0.00	0.00	0.00	0	0	0	0	230.0000	0	0	0	0
120446	117.60	-30.92	110.45	-55.78	1.0333	260.40	1	217.00	48.81	0.00	0.00	0.00	0.00	0.00	0.00	0	0	0	0	217.0000	0	0	0	0
120449	7.25	0.03	4.28	-2.89	1.0400	10.08	1	8.40	2.73	0.00	0.00	0.00	0.00	0.00	0.00	0	0	0	0	8.4000	0	0	0	0
120449	6.64	0.03	4.28	-2.86	1.0400	10.08	1	8.40	3.98	0.00	0.00	0.00	0.00	0.00	0.00	0	0	0	0	8.4000	0	0	0	0
120450	6.29	-2.26	4.28	-2.65	1.0400	10.08	1	8.40	3.63	0.00	0.00	0.00	0.00	0.00	0.00	0	0	0	0	8.4000	0	0	0	0
120450	7.25	-2.26	4.28	-2.58	1.0400	10.08	1	8.40	4.14	0.00	0.00	0.00	0.00	0.00	0.00	0	0	0	0	8.4000	0	0	0	0
120451	0.00	0.00	4.28	-2.18	1.0400	10.08	0	8.40	3.44	0.00	0.00	0.00	0.00	0.00	0.00	0	0	0	0	8.4000	0	0	0	0
120451	7.25	0.30	4.28	-2.88	1.0400	10.08	1	8.40	1.32	0.00	0.00	0.00	0.00	0.00	0.00	0	0	0	0	8.4000	0	0	0	0
120452	7.25	0.14	4.28	-2.72	1.0400	10.08	1	8.40	2.60	0.00	0.00	0.00	0.00	0.00	0.00	0	0	0	0	8.4000	0	0	0	0
120452	0.00	0.00	4.28	-2.86	1.0400	10.08	0	8.40	2.89	0.00	0.00	0.00	0.00	0.00	0.00	0	0	0	0	8.4000	0	0	0	0
120453	7.25	0.23	4.28	-2.31	1.0400	10.08	1	8.40	3.04	0.00	0.00	0.00	0.00	0.00	0.00	0	0	0	0	8.4000	0	0	0	0
120454	7.25	-2.26	4.28	-2.26	1.0400	10.08	1	8.40	2.48	0.00	0.00	0.00	0.00	0.00	0.00	0	0	0	0	8.4000	0	0	0	0
120454	7.25	-2.47	4.28	-2.47	1.0400	10.08	1	8.40	1.26	0.00	0.00	0.00	0.00	0.00	0.00	0	0	0	0	8.4000	0	0	0	0
120455	4.85	0.09	4.28	-2.57	1.0400	10.08	1	8.40	2.19	0.00	0.00	0.00	0.00	0.00	0.00	0	0	0	0	8.4000	0	0	0	0
120455	7.25	0.09	4.28	-2.70	1.0400	10.08	1	8.40	4.13	0.00	0.00	0.00	0.00	0.00	0.00	0	0	0	0	8.4000	0	0	0	0
120456	7.25	-2.88	4.28	-2.88	1.0400	10.08	1	8.40	1.47	0.00	0.00	0.00	0.00	0.00	0.00	0	0	0	0	8.4000	0	0	0	0
120456	6.02	-2.45	4.28	-2.45	1.0400	10.08	1	8.40	3.36	0.00	0.00	0.00	0.00	0.00	0.00	0	0	0	0	8.4000	0	0	0	0
120457	7.25	0.12	4.28	-2.10	1.0400	10.08	1	8.40	1.35	0.00	0.00	0.00	0.00	0.00	0.00	0	0	0	0	8.4000	0	0	0	0
120457	7.25	0.12	4.28	-2.31	1.0400	10.08	1	8.40	2.04	0.00	0.00	0.00	0.00	0.00	0.00	0	0	0	0	8.4000	0	0	0	0
120458	7.25	-1.86	4.28	-2.41	1.0400	10.08	1	8.40	3.46	0.00	0.00	0.00	0.00	0.00	0.00	0	0	0	0	8.4000	0	0	0	0
120458	4.00	-1.86	4.28	-2.84	1.0400	10.08	1	8.40	1.34	0.00	0.00	0.00	0.00	0.00	0.00	0	0	0	0	8.4000	0	0	0	0
120459	4.37	-2.32	4.28	-2.32	1.0400	10.08	1	8.40	1.71	0.00	0.00	0.00	0.00	0.00	0.00	0	0	0	0	8.4000	0	0	0	0
120459	5.94	-2.52	4.28	-2.52	1.0400	10.08	1	8.40	3.28	0.00	0.00	0.00	0.00	0.00	0.00	0	0	0	0	8.4000	0	0	0	0
120460	6.78	0.05	4.28	-2.85	1.0400	10.08	1	8.40	4.12	0.00	0.00	0.00	0.00	0.00	0.00	0	0	0	0	8.4000	0	0	0	0
120460	5.39	0.05	4.28	-2.13	1.0400	10.08	1	8.40	2.73	0.00	0.00	0.00	0.00	0.00	0.00	0	0	0	0	8.4000	0	0	0	0
...
];

%% generator cost data
mpc.gencost = [
1	0	0	6	87.52	5767.47	219.22	8639.24	350.91	11794.08	482.61	15232.00	614.30	18952.98	746.00	22957.05
1	0	0	6	303.73	12184.92	392.78	14626.09	481.84	17113.21	570.89	19646.28	659.95	22225.31	749.00	24850.28
1	0	0	6	15.73	1104.61	23.38	1310.74	31.04	1517.27	38.69	1724.20	46.35	1931.54	54.00	2139.29
1	0	0	6	6.30	896.78	15.84	1223.53	25.38	1550.62	34.92	1878.03	44.46	2205.78	54.00	2533.86
1	0	0	6	23.18	1310.50	29.34	1477.89	35.51	1646.02	41.67	1814.90	47.84	1984.51	54.00	2154.86
1	0	0	6	23.19	1245.04	28.55	1376.84	33.91	1509.08	39.28	1641.76	44.64	1774.88	50.00	1908.43
1	0	0	6	21.89	1255.35	30.31	1470.56	38.73	1686.27	47.16	1902.50	55.58	2119.24	64.00	2336.48
1	0	0	6	26.28	1475.49	31.82	1643.10	37.37	1811.08	42.91	1979.45	48.46	2148.20	54.00	2317.33
1	0	0	6	27.60	1516.08	42.88	1936.88	58.16	2358.12	73.44	2779.81	88.72	3201.94	104.00	3624.51
1	0	0	6	48.44	2290.90	59.55	2643.00	70.66	2996.51	81.78	3351.43	92.89	3707.75	104.00	4065.49
1	0	0	6	20.52	1200.88	27.82	1384.12	35.11	1568.09	42.41	1752.78	49.70	1938.20	57.00	2124.33
1	0	0	6	14.65	1088.25	23.12	1321.11	31.59	1554.34	40.06	1787.96	48.53	2021.95	57.00	2256.33
1	0	0	6	28.41	1445.93	34.13	1598.98	39.85	1752.56	45.56	1906.67	51.28	2061.31	57.00	2216.49
1	0	0	6	24.09	1320.75	30.67	1494.32	37.25	1668.72	43.84	1843.95	50.42	2020.00	57.00	2196.89
1	0	0	6	14.15	1057.72	22.72	1283.16	31.29	1509.62	39.86	1737.12	48.43	1965.65	57.00	2195.21
1	0	0	6	13.05	1037.28	21.84	1274.23	30.63	1511.78	39.42	1749.95	48.21	1988.72	57.00	2228.09
1	0	0	6	13.03	1011.96	21.82	1232.29	30.62	1452.67	39.41	1673.09	48.21	1893.56	57.00	2114.08
1	0	0	6	25.07	1414.01	31.46	1599.58	37.84	1785.50	44.23	1971.76	50.61	2158.37	57.00	2345.33
1	0	0	6	25.87	1448.25	32.30	1637.34	38.72	1826.46	45.15	2015.61	51.57	2204.79	58.00	2393.99
1	0	0	6	25.90	1360.72	32.32	1527.72	38.74	1695.22	45.16	1863.22	51.58	2031.73	58.00	2200.73
1	0	0	6	10.82	970.86	20.26	1218.41	29.69	1466.81	39.13	1716.05	48.56	1966.12	58.00	2217.05
1	0	0	6	8.97	911.59	18.78	1157.12	28.58	1403.35	38.39	1650.28	48.19	1897.92	58.00	2146.26
1	0	0	6	17.69	1230.13	25.75	1477.65	33.81	1725.67	41.88	1974.18	49.94	2223.18	58.00	2472.67
1	0	0	6	26.75	1530.14	33.00	1727.13	39.25	1924.63	45.50	2122.62	51.75	2321.12	58.00	2520.11
1	0	0	5	3.03	0.00	5.52	0.00	8.02	0.00	10.51	0.00	13.00	0.00	0	0
1	0	0	6	149.20	4850.10	252.16	7251.35	355.12	9652.60	458.08	12053.85	561.04	14455.10	664.00	16856.35
1	0	0	6	76.51	3091.63	193.81	5731.18	311.11	8431.83	428.40	11193.58	545.70	14016.42	663.00	16900.36
1	0	0	5	224.35	0.00	320.76	0.00	417.18	0.00	513.59	0.00	610.00	0.00	0	0
1	0	0	6	183.07	0.00	261.86	0.00	340.64	0.00	419.43	0.00	498.21	0.00	577.00	0.00
1	0	0	5	1.49	0.00	4.37	0.00	7.24	0.00	10.12	0.00	13.00	0.00	0	0
1	0	0	6	165.98	7005.62	243.18	8833.05	320.39	10694.25	397.59	12589.23	474.80	14517.98	552.00	16480.50
1	0	0	6	34.50	1865.29	82.20	3048.52	129.90	4271.86	177.60	5535.32	225.30	6838.90	273.00	8182.60
1	0	0	6	44.20	2013.71	69.16	2668.88	94.12	3330.43	119.08	3998.35	144.04	4672.64	169.00	5353.30
1	0	0	6	29.81	1584.43	57.65	2267.01	85.49	2959.82	113.32	3662.87	141.16	4376.15	169.00	5099.66
1	0	0	6	201.18	2484.54	416.94	3969.47	632.71	5594.06	848.47	7358.32	1064.24	9262.24	1280.00	11305.82
1	0	0	6	178.29	2316.00	398.63	3818.82	618.97	5467.29	839.32	7261.41	1059.66	9201.18	1280.00	11286.61
1	0	0	6	34.89	1766.69	44.11	2042.95	53.33	2320.25	62.56	2598.59	71.78	2877.96	81.00	3158.37
1	0	0	6	13.80	1082.81	27.24	1434.69	40.68	1789.94	54.12	2148.55	67.56	2510.53	81.00	2875.87
1	0	0	5	3.97	0.00	10.48	0.00	16.99	0.00	23.49	0.00	30.00	0.00	0	0
1	0	0	6	20.03	1210.42	31.02	1483.72	42.02	1757.16	53.01	2030.75	64.01	2304.48	75.00	2578.36
1	0	0	6	7.50	924.05	21.00	1304.84	34.50	1688.87	48.00	2076.13	61.50	2466.64	75.00	2860.38
1	0	0	6	27.46	1379.42	36.97	1610.34	46.48	1841.42	55.98	2072.65	65.49	2304.03	75.00	2535.57
1	0	0	6	19.31	1293.82	30.45	1629.12	41.59	1966.48	52.72	2305.87	63.86	2647.32	75.00	2990.81
1	0	0	6	17.39	1221.30	22.41	1382.31	27.43	1543.52	32.46	1704.93	37.48	1866.54	42.50	2028.36
1	0	0	5	13.43	0.00	17.07	0.00	20.71	0.00	24.36	0.00	28.00	0.00	0	0
1	0	0	5	12.12	0.00	16.09	0.00	20.06	0.00	24.03	0.00	28.00	0.00	0	0
1	0	0	5	5.59	0.00	8.69	0.00	11.79	0.00	14.90	0.00	18.00	0.00	0	0
1	0	0	5	5.77	0.00	8.83	0.00	11.89	0.00	14.94	0.00	18.00	0.00	0	0
1	0	0	5	1.93	0.00	5.95	0.00	9.97	0.00	13.98	0.00	18.00	0.00	0	0
1	0	0	5	2.10	0.00	6.08	0.00	10.05	0.00	14.02	0.00	18.00	0.00	0	0
1	0	0	6	68.38	2817.78	82.70	3238.36	97.03	3661.87	111.35	4088.32	125.68	4517.70	140.00	4950.01
1	0	0	6	36.59	1735.60	47.27	2027.71	57.95	2320.12	68.64	2612.82	79.32	2905.83	90.00	3199.13
1	0	0	5	14.60	0.00	18.95	0.00	23.30	0.00	27.65	0.00	32.00	0.00	0	0
1	0	0	5	14.84	0.00	19.13	0.00	23.42	0.00	27.71	0.00	32.00	0.00	0	0
1	0	0	5	11.82	0.00	16.87	0.00	21.91	0.00	26.95	0.00	32.00	0.00	0	0
1	0	0	6	12.15	1029.93	22.92	1323.27	33.69	1618.12	44.46	1914.47	55.23	2212.33	66.00	2511.70
1	0	0	6	20.23	1291.87	29.38	1560.14	38.54	1829.46	47.69	2099.85	56.85	2371.29	66.00	2643.79
1	0	0	6	19.26	1282.86	27.81	1544.65	36.36	1807.79	44.90	2072.29	53.45	2338.15	62.00	2605.36
1	0	0	6	10.92	1000.72	22.54	1316.89	34.15	1635.06	45.77	1955.25	57.38	2277.45	69.00	2601.65
1	0	0	6	25.93	1424.95	34.54	1664.61	43.16	1905.40	51.77	2147.32	60.39	2390.36	69.00	2634.52
1	0	0	5	14.26	0.00	20.19	0.00	26.13	0.00	32.07	0.00	38.00	0.00	0	0
1	0	0	5	9.49	0.00	15.87	0.00	22.25	0.00	28.62	0.00	35.00	0.00	0	0
1	0	0	6	6.40	507.04	14.12	1118.43	21.84	1729.82	29.56	2341.22	37.28	2952.61	45.00	3564.00
1	0	0	6	11.11	897.69	17.89	1445.35	24.67	1993.01	31.44	2540.68	38.22	3088.34	45.00	3636.00
1	0	0	6	24.70	1315.79	34.76	1561.50	44.82	1808.78	54.88	2057.62	64.94	2308.02	75.00	2559.98
1	0	0	6	34.86	1647.69	41.89	1837.74	48.92	2028.41	55.94	2219.70	62.97	2411.60	70.00	2604.13
1	0	0	6	58.90	2438.78	71.14	2783.46	83.38	3129.50	95.62	3476.89	107.86	3825.63	120.10	4175.74
1	0	0	6	30.42	1593.99	38.14	1819.86	45.85	2046.35	53.57	2273.48	61.28	2501.23	69.00	2729.61
1	0	0	6	32.31	1551.36	39.81	1747.84	47.31	1945.04	54.80	2142.96	62.30	2341.61	69.80	2540.98
1	0	0	6	11.29	1041.32	22.99	1390.22	34.69	1740.00	46.40	2090.63	58.10	2442.14	69.80	2794.51
1	0	0	6	19.97	1279.01	30.00	1567.11	40.02	1857.07	50.05	2148.87	60.07	2442.52	70.10	2738.02
1	0	0	6	8.34	930.18	20.67	1263.14	33.00	1597.50	45.34	1933.25	57.67	2270.41	70.00	2608.96
1	0	0	6	21.65	1265.36	31.00	1508.39	40.35	1751.65	49.70	1995.13	59.05	2238.82	68.40	2482.74
1	0	0	6	42.26	2021.36	61.61	2576.64	80.96	3138.33	100.30	3706.40	119.65	4280.87	139.00	4861.73
1	0	0	6	37.35	1761.71	50.68	2120.64	64.01	2480.23	77.34	2840.48	90.67	3201.38	104.00	3562.94
1	0	0	6	32.22	1568.07	46.58	1929.89	60.93	2292.59	75.29	2656.16	89.64	3020.61	104.00	3385.92
1	0	0	6	13.48	1107.59	31.58	1579.79	49.69	2052.40	67.79	2525.40	85.90	2998.81	104.00	3472.62
1	0	0	6	23.14	1398.14	37.63	1808.19	52.12	2220.09	66.62	2633.86	81.11	3049.48	95.60	3466.97
1	0	0	6	32.87	1693.22	45.42	2055.75	57.96	2420.86	70.51	2788.57	83.05	3158.86	95.60	3531.73
1	0	0	6	46.30	2003.12	56.08	2269.34	65.86	2535.93	75.64	2802.87	85.42	3070.17	95.20	3337.84
1	0	0	6	26.43	1463.54	34.80	1704.68	43.18	1946.79	51.55	2189.88	59.93	2433.95	68.30	2678.99
1	0	0	6	33.36	1691.73	40.35	1898.95	47.34	2106.71	54.32	2314.99	61.31	2523.81	68.30	2733.15
1	0	0	5	15.74	0.00	20.56	0.00	25.37	0.00	30.18	0.00	35.00	0.00	0	0
1	0	0	6	24.70	1340.16	31.60	1522.12	38.50	1704.86	45.40	1888.38	52.30	2072.68	59.20	2257.77
1	0	0	6	16.48	1157.44	26.98	1446.77	37.49	1736.25	47.99	2025.88	58.50	2315.66	69.00	2605.58
1	0	0	6	22.97	1328.69	32.18	1579.25	41.38	1830.90	50.59	2083.62	59.79	2337.42	69.00	2592.30
1	0	0	5	5.19	0.00	12.39	0.00	19.60	0.00	26.80	0.00	34.00	0.00	0	0
1	0	0	6	28.92	1691.84	55.14	2464.03	81.35	3248.96	107.57	4046.64	133.78	4857.05	160.00	5680.20
1	0	0	6	30.33	1541.21	38.86	1775.23	47.40	2009.87	55.93	2245.14	64.47	2481.04	73.00	2717.55
1	0	0	6	20.77	1324.51	31.22	1633.83	41.66	1943.14	52.11	2252.45	62.55	2561.76	73.00	2871.08
1	0	0	6	24.52	1362.62	34.22	1620.88	43.91	1879.26	53.61	2137.75	63.30	2396.37	73.00	2655.09
1	0	0	6	26.33	1511.30	42.86	1980.88	59.40	2451.79	75.93	2924.05	92.47	3397.63	109.00	3872.55
1	0	0	6	27.46	1505.01	43.77	1945.37	60.08	2389.37	76.38	2836.98	92.69	3288.23	109.00	3743.10
1	0	0	6	46.90	2164.42	59.32	2535.40	71.74	2907.68	84.16	3281.24	96.58	3656.08	109.00	4032.21
1	0	0	6	47.78	2010.13	60.02	2329.58	72.27	2651.77	84.51	2976.70	96.76	3304.35	109.00	3634.74
1	0	0	6	16.83	1326.30	46.46	2169.36	76.10	3018.23	105.73	3872.92	135.37	4733.43	165.00	5599.75
1	0	0	6	49.54	1978.34	72.63	2505.45	95.72	3033.40	118.82	3562.19	141.91	4091.82	165.00	4622.29
1	0	0	6	71.73	2704.80	90.38	3187.81	109.04	3672.11	127.69	4157.71	146.35	4644.60	165.00	5132.78
1	0	0	6	58.52	2433.08	79.82	3010.09	101.11	3589.92	122.41	4172.58	143.70	4758.07	165.00	5346.38
1	0	0	6	8.55	898.14	18.84	1148.64	29.13	1399.15	39.42	1649.65	49.71	1900.15	60.00	2150.65
1	0	0	6	37.94	2022.19	62.75	2793.35	87.56	3573.04	112.38	4361.25	137.19	5157.98	162.00	5963.23
1	0	0	6	69.97	2600.32	88.38	3062.60	106.78	3525.30	125.19	3988.42	143.59	4451.97	162.00	4915.95
1	0	0	6	59.93	2417.61	80.54	2958.71	101.16	3501.74	121.77	4046.71	142.39	4593.62	163.00	5142.46
1	0	0	6	42.35	2123.93	66.08	2842.52	89.81	3571.49	113.54	4310.85	137.27	5060.59	161.00	5820.71
1	0	0	6	63.29	2427.00	77.83	2799.91	92.37	3176.08	106.92	3555.49	121.46	3938.17	136.00	4324.09
1	0	0	6	82.41	3454.54	108.93	4269.31	135.45	5093.56	161.96	5927.31	188.48	6770.55	215.00	7623.28
1	0	0	6	90.78	3300.90	109.62	3803.95	128.47	4311.16	147.31	4822.53	166.16	5338.07	185.00	5857.76
1	0	0	6	44.07	2043.80	72.26	2789.74	100.44	3547.22	128.63	4316.26	156.81	5096.84	185.00	5888.98
1	0	0	6	66.98	2296.69	90.18	2789.39	113.39	3285.61	136.59	3785.36	159.80	4288.65	183.00	4795.46
1	0	0	5	5.26	0.00	6.87	0.00	8.48	0.00	10.09	0.00	11.70	0.00	0	0
1	0	0	6	9.54	959.78	22.63	1299.12	35.72	1639.95	48.82	1982.25	61.91	2326.05	75.00	2671.32
1	0	0	6	110.38	4028.86	143.30	4928.57	176.23	5844.88	209.15	6777.77	242.08	7727.24	275.00	8693.31
1	0	0	6	74.33	2826.89	94.46	3358.99	114.60	3895.71	134.73	4437.05	154.87	4983.01	175.00	5533.58
1	0	0	5	77.27	0.00	101.70	0.00	126.14	0.00	150.57	0.00	175.00	0.00	0	0
1	0	0	6	38.81	1922.51	66.05	2666.45	93.29	3424.66	120.52	4197.13	147.76	4983.86	175.00	5784.85
1	0	0	6	95.32	3458.30	114.86	3984.78	134.39	4514.85	153.93	5048.52	173.46	5585.77	193.00	6126.62
1	0	0	6	37.65	1896.47	63.32	2610.65	88.99	3337.16	114.66	4076.03	140.33	4827.23	166.00	5590.79
1	0	0	6	44.21	2066.50	68.57	2737.29	92.93	3409.63	117.28	4083.52	141.64	4758.95	166.00	5435.93
1	0	0	6	10.31	900.63	15.85	1031.49	21.39	1162.57	26.92	1293.85	32.46	1425.35	38.00	1557.06
1	0	0	6	18.13	1111.58	22.10	1211.22	26.08	1311.04	30.05	1411.02	34.03	1511.18	38.00	1611.51
1	0	0	6	5.07	798.00	11.66	981.15	18.24	1164.99	24.83	1349.50	31.41	1534.69	38.00	1720.55
1	0	0	6	6.14	810.92	12.51	970.66	18.88	1131.11	25.26	1292.28	31.63	1454.16	38.00	1616.75
1	0	0	6	37.51	2214.41	86.41	3767.53	135.31	5334.82	184.20	6916.29	233.10	8511.95	282.00	10121.77
1	0	0	6	24.10	1548.45	53.24	2387.28	82.38	3240.61	111.52	4108.44	140.66	4990.75	169.80	5887.57
1	0	0	6	20.63	1437.42	50.46	2280.11	80.30	3126.80	110.13	3977.50	139.97	4832.20	169.80	5690.90
1	0	0	6	35.46	1836.39	62.33	2580.22	89.20	3333.80	116.06	4097.14	142.93	4870.22	169.80	5653.05
1	0	0	6	32.88	1743.31	60.26	2483.39	87.65	3229.12	115.03	3980.51	142.42	4737.57	169.80	5500.27
1	0	0	6	66.37	2691.39	84.06	3186.82	101.74	3683.06	119.43	4180.12	137.11	4678.00	154.80	5176.70
1	0	0	6	9.55	971.24	22.64	1325.89	35.73	1681.93	48.82	2039.35	61.91	2398.14	75.00	2758.33
1	0	0	6	39.06	1934.49	62.85	2602.88	86.64	3271.27	110.42	3939.65	134.21	4608.04	158.00	5276.42
1	0	0	6	44.23	2221.04	66.98	2933.05	89.74	3650.23	112.49	4372.58	135.25	5100.10	158.00	5832.78
1	0	0	6	21.32	1452.09	48.66	2240.74	75.99	3029.90	103.33	3819.55	130.66	4609.70	158.00	5400.35
1	0	0	6	32.86	1633.70	41.29	1869.97	49.72	2106.60	58.14	2343.61	66.57	2580.98	75.00	2818.72
1	0	0	6	36.35	1901.53	62.96	2668.31	89.57	3446.73	116.18	4236.81	142.79	5038.54	169.40	5851.92
1	0	0	6	22.87	1271.47	28.30	1412.99	33.72	1554.79	39.15	1696.89	44.57	1839.27	50.00	1981.95
1	0	0	6	44.23	1895.25	54.98	2174.43	65.74	2454.28	76.49	2734.78	87.25	3015.94	98.00	3297.76
1	0	0	6	33.19	1589.64	46.15	1918.72	59.11	2249.16	72.08	2580.97	85.04	2914.13	98.00	3248.65
1	0	0	6	8.33	907.07	21.06	1211.40	33.80	1516.10	46.53	1821.19	59.27	2126.67	72.00	2432.52
1	0	0	6	25.74	1387.98	34.99	1632.39	44.24	1876.97	53.50	2121.71	62.75	2366.61	72.00	2611.67
1	0	0	6	13.50	1055.12	25.20	1355.95	36.90	1657.03	48.60	1958.37	60.30	2259.95	72.00	2561.79
1	0	0	6	10.13	1007.15	22.50	1372.57	34.88	1739.15	47.25	2106.88	59.63	2475.77	72.00	2845.82
1	0	0	6	74.41	2848.64	93.93	3370.79	113.45	3898.16	132.96	4430.77	152.48	4968.60	172.00	5511.65
1	0	0	6	22.41	1398.21	50.93	2099.01	79.45	2807.06	107.96	3522.35	136.48	4244.87	165.00	4974.63
1	0	0	6	66.80	2725.60	86.44	3277.78	106.08	3835.32	125.72	4398.21	145.36	4966.47	165.00	5540.07
1	0	0	5	2.28	0.00	4.79	0.00	7.29	0.00	9.79	0.00	12.30	0.00	0	0
1	0	0	6	6.91	862.59	15.13	1089.25	23.35	1316.24	31.56	1543.55	39.78	1771.19	48.00	1999.14
1	0	0	6	12.81	1056.45	25.05	1386.47	37.29	1718.83	49.52	2053.53	61.76	2390.58	74.00	2729.96
1	0	0	5	4.91	0.00	7.18	0.00	9.46	0.00	11.73	0.00	14.00	0.00	0	0
1	0	0	6	32.63	1638.93	40.10	1852.85	47.58	2066.99	55.05	2281.36	62.53	2495.94	70.00	2710.75
1	0	0	6	220.95	7559.13	271.26	8874.72	321.57	10199.82	371.88	11534.44	422.19	12878.58	472.50	14232.24
1	0	0	6	51.41	2544.38	107.51	4122.82	163.61	5721.77	219.70	7341.24	275.80	8981.23	331.90	10641.74
1	0	0	6	156.21	5049.09	192.03	5953.92	227.85	6867.31	263.66	7789.26	299.48	8719.78	335.30	9658.86
1	0	0	6	7.28	885.36	16.62	1147.67	25.97	1410.51	35.31	1673.89	44.66	1937.81	54.00	2202.28
1	0	0	6	10.18	919.80	18.94	1125.39	27.71	1331.41	36.47	1537.88	45.24	1744.79	54.00	1952.14
1	0	0	6	19.57	1178.17	26.46	1353.11	33.34	1528.55	40.23	1704.49	47.11	1880.93	54.00	2057.87
1	0	0	6	24.34	1318.88	30.27	1474.35	36.20	1630.29	42.14	1786.72	48.07	1943.64	54.00	2101.04
1	0	0	6	14.99	1123.86	22.79	1354.36	30.59	1586.12	38.40	1819.14	46.20	2053.41	54.00	2288.95
1	0	0	6	18.36	1157.23	25.49	1342.13	32.62	1527.33	39.74	1712.85	46.87	1898.69	54.00	2084.84
1	0	0	6	13.77	1043.55	20.02	1214.13	26.26	1384.78	32.51	1555.50	38.75	1726.30	45.00	1897.18
1	0	0	6	10.04	920.83	17.03	1097.25	24.02	1274.31	31.02	1452.02	38.01	1630.37	45.00	1809.36
1	0	0	6	41.90	1866.55	56.92	2257.67	71.94	2649.79	86.96	3042.94	101.98	3437.11	117.00	3832.29
1	0	0	5	1.83	0.00	3.87	0.00	5.91	0.00	7.96	0.00	10.00	0.00	0	0
1	0	0	5	3.80	0.00	5.35	0.00	6.90	0.00	8.45	0.00	10.00	0.00	0	0
1	0	0	5	2.08	0.00	4.06	0.00	6.04	0.00	8.02	0.00	10.00	0.00	0	0
1	0	0	6	4.60	805.12	12.88	1050.15	21.16	1296.26	29.44	1543.45	37.72	1791.74	46.00	2041.11
1	0	0	6	7.34	888.27	15.07	1119.25	22.80	1350.83	30.54	1583.00	38.27	1815.75	46.00	2049.11
1	0	0	5	9.75	0.00	18.81	0.00	27.88	0.00	36.94	0.00	46.00	0.00	0	0
1	0	0	6	7.55	854.60	15.24	1043.63	22.93	1233.39	30.62	1423.85	38.31	1615.02	46.00	1806.91
1	0	0	6	184.51	6078.98	231.61	7394.35	278.71	8752.62	325.80	10153.78	372.90	11597.85	420.00	13084.80
1	0	0	6	112.96	3681.58	172.37	5216.55	231.78	6784.06	291.18	8384.10	350.59	10016.68	410.00	11681.80
1	0	0	6	12.14	1007.85	19.31	1206.26	26.48	1404.95	33.66	1603.92	40.83	1803.17	48.00	2002.71
1	0	0	6	13.89	1054.84	20.71	1242.87	27.53	1431.39	34.36	1620.40	41.18	1809.90	48.00	1999.88
1	0	0	6	17.18	1093.86	23.34	1245.22	29.51	1397.06	35.67	1549.38	41.84	1702.19	48.00	1855.48
1	0	0	6	17.96	1159.43	23.77	1317.55	29.58	1475.99	35.38	1634.76	41.19	1793.85	47.00	1953.28
1	0	0	6	57.33	2298.99	128.26	4159.19	199.20	6108.24	270.13	8146.14	341.07	10272.89	412.00	12488.49
1	0	0	6	83.66	3330.55	112.93	4165.12	142.20	5012.76	171.46	5873.46	200.73	6747.23	230.00	7634.07
1	0	0	6	48.81	2270.68	82.45	3197.73	116.09	4129.78	149.72	5066.82	183.36	6008.86	217.00	6955.89
1	0	0	6	2.73	679.69	3.86	707.55	5.00	735.43	6.13	763.32	7.27	791.22	8.40	819.13
1	0	0	6	3.98	740.65	4.86	769.09	5.75	797.53	6.63	825.98	7.52	854.44	8.40	882.90
1	0	0	6	3.63	714.07	4.58	740.73	5.54	767.40	6.49	794.07	7.45	820.73	8.40	847.40
1	0	0	6	4.14	725.49	4.99	748.72	5.84	771.96	6.70	795.20	7.55	818.44	8.40	841.68
1	0	0	5	3.44	0.00	4.68	0.00	5.92	0.00	7.16	0.00	8.40	0.00	0	0
1	0	0	6	1.32	645.04	2.74	679.84	4.15	714.68	5.57	749.55	6.98	784.46	8.40	819.40
1	0	0	6	2.60	682.55	3.76	713.75	4.92	744.98	6.08	776.22	7.24	807.49	8.40	838.78
1	0	0	5	2.89	0.00	4.27	0.00	5.64	0.00	7.02	0.00	8.40	0.00	0	0
1	0	0	6	3.04	695.20	4.11	724.32	5.18	753.47	6.26	782.62	7.33	811.79	8.40	840.98
1	0	0	6	2.48	673.35	3.66	702.36	4.85	731.38	6.03	760.43	7.22	789.51	8.40	818.61
1	0	0	6	1.26	644.91	2.69	681.53	4.12	718.17	5.54	754.84	6.97	791.54	8.40	828.26
1	0	0	6	2.19	674.71	3.43	709.93	4.67	745.16	5.92	780.39	7.16	815.62	8.40	850.86
1	0	0	6	4.13	723.17	4.98	746.04	5.84	768.90	6.69	791.77	7.55	814.65	8.40	837.53
1	0	0	6	1.47	650.60	2.86	686.43	4.24	722.27	5.63	758.10	7.01	793.94	8.40	829.78
1	0	0	6	3.36	710.54	4.37	739.92	5.38	769.32	6.38	798.73	7.39	828.15	8.40	857.59
1	0	0	6	1.35	645.67	2.76	680.22	4.17	714.77	5.58	749.32	6.99	783.87	8.40	818.43
1	0	0	6	2.04	665.97	3.31	699.26	4.58	732.54	5.86	765.84	7.13	799.15	8.40	832.47
1	0	0	6	3.46	704.44	4.45	730.66	5.44	756.90	6.42	783.14	7.41	809.40	8.40	835.67
1	0	0	6	1.34	649.35	2.75	688.08	4.16	726.82	5.58	765.56	6.99	804.31	8.40	843.06
1	0	0	6	1.71	660.89	3.05	698.68	4.39	736.49	5.72	774.32	7.06	812.18	8.40	850.05
1	0	0	6	3.28	702.83	4.30	731.00	5.33	759.18	6.35	787.37	7.38	815.56	8.40	843.77
1	0	0	6	4.12	727.37	4.98	751.22	5.83	775.07	6.69	798.92	7.54	822.78	8.40	846.64
1	0	0	6	2.73	696.40	3.86	731.21	5.00	766.04	6.13	800.88	7.27	835.75	8.40	870.63
...
];

%% branch data
mpc.branch = [
110001	110004	0.001440	0.047750	0.00000	245.70	245.70	245.70	1.00000	0.000	1	0.00	0.00	0.00	0.00	0.00	0.00	0	0	0	0
110001	110041	0.016080	0.088100	0.05448	227.90	227.90	227.90	0.00000	0.000	1	0.00	0.00	35.37	-1.24	-35.18	-3.56	0	0	0	0
110001	110113	0.001480	0.008960	0.01119	307.20	307.20	307.20	0.00000	0.000	1	0.00	0.00	-110.27	28.52	110.45	-28.64	0	0	0	0
110001	230292	0.010940	0.051090	0.07783	257.20	257.20	257.20	0.00000	0.000	1	0.00	0.00	32.22	-16.15	-32.10	8.32	0	0	0	0
110001	270046	0.006160	0.041050	0.01329	271.40	271.40	271.40	0.00000	0.000	1	0.00	0.00	42.46	-11.21	-42.35	10.51	0	0	0	0
110002	110004	0.000000	0.010000	0.00000	10.40	10.40	10.40	1.00000	0.000	1	0.00	0.00	0.00	0.00	0.00	0.00	0	0	0	0
110003	110004	0.000000	0.010000	0.00000	10.00	10.00	10.00	1.00000	0.000	1	0.00	0.00	0.00	0.00	0.00	0.00	0	0	0	0
110005	110008	0.001170	0.036910	0.00000	243.90	243.90	243.90	1.00000	0.000	1	0.00	0.00	0.00	0.00	0.00	0.00	0	0	0	0
110005	110065	0.002450	0.013000	0.01183	307.40	307.40	307.40	0.00000	0.000	1	0.00	0.00	96.51	-27.87	-96.27	27.89	0	0	0	0
110005	111259	0.002590	0.018470	0.02085	300.80	300.80	300.80	0.00000	0.000	1	0.00	0.00	104.86	-18.87	-104.58	18.70	0	0	0	0
110005	111363	0.002790	0.019210	0.00978	302.20	302.20	302.20	0.00000	0.000	1	0.00	0.00	-164.51	-17.59	165.24	21.60	0	0	0	0
110005	111411	0.004100	0.015080	0.02064	293.00	293.00	293.00	0.00000	0.000	1	0.00	0.00	-116.56	25.68	117.12	-25.77	0	0	0	0
110006	110008	0.000000	0.010000	0.00000	10.00	10.00	10.00	1.00000	0.000	1	0.00	0.00	0.00	0.00	0.00	0.00	0	0	0	0
...